* NGSPICE file created from analog_top_v2.ext - technology: sky130A

.subckt sky130_fd_pr__nfet_g5v0d10v5_BRTJC6 a_n345_n500# a_1135_n588# a_n603_n588#
+ a_n1393_n588# a_n1609_n500# a_661_n588# a_n1135_n500# a_n977_n500# a_1293_n588#
+ a_n761_n588# a_n503_n500# a_n1551_n588# a_129_n500# a_n1293_n500# a_287_n500# a_n661_n500#
+ a_1451_n588# a_n1451_n500# a_919_n500# a_445_n500# a_1077_n500# a_29_n588# a_n129_n588#
+ a_603_n500# a_187_n588# a_1235_n500# a_n287_n588# a_761_n500# a_819_n588# a_345_n588#
+ a_n1077_n588# a_n29_n500# a_1393_n500# a_n919_n588# a_n1743_n722# a_n187_n500# a_977_n588#
+ a_n445_n588# a_503_n588# a_n1235_n588# a_1551_n500# a_n819_n500#
X0 a_n819_n500# a_n919_n588# a_n977_n500# a_n1743_n722# sky130_fd_pr__nfet_g5v0d10v5 ad=1.45e+12p pd=1.058e+07u as=1.45e+12p ps=1.058e+07u w=5e+06u l=500000u
X1 a_n661_n500# a_n761_n588# a_n819_n500# a_n1743_n722# sky130_fd_pr__nfet_g5v0d10v5 ad=1.45e+12p pd=1.058e+07u as=0p ps=0u w=5e+06u l=500000u
X2 a_919_n500# a_819_n588# a_761_n500# a_n1743_n722# sky130_fd_pr__nfet_g5v0d10v5 ad=1.45e+12p pd=1.058e+07u as=1.45e+12p ps=1.058e+07u w=5e+06u l=500000u
X3 a_n187_n500# a_n287_n588# a_n345_n500# a_n1743_n722# sky130_fd_pr__nfet_g5v0d10v5 ad=1.45e+12p pd=1.058e+07u as=1.45e+12p ps=1.058e+07u w=5e+06u l=500000u
X4 a_761_n500# a_661_n588# a_603_n500# a_n1743_n722# sky130_fd_pr__nfet_g5v0d10v5 ad=0p pd=0u as=1.45e+12p ps=1.058e+07u w=5e+06u l=500000u
X5 a_287_n500# a_187_n588# a_129_n500# a_n1743_n722# sky130_fd_pr__nfet_g5v0d10v5 ad=1.45e+12p pd=1.058e+07u as=1.45e+12p ps=1.058e+07u w=5e+06u l=500000u
X6 a_n1293_n500# a_n1393_n588# a_n1451_n500# a_n1743_n722# sky130_fd_pr__nfet_g5v0d10v5 ad=1.45e+12p pd=1.058e+07u as=1.45e+12p ps=1.058e+07u w=5e+06u l=500000u
X7 a_1393_n500# a_1293_n588# a_1235_n500# a_n1743_n722# sky130_fd_pr__nfet_g5v0d10v5 ad=1.45e+12p pd=1.058e+07u as=1.45e+12p ps=1.058e+07u w=5e+06u l=500000u
X8 a_n345_n500# a_n445_n588# a_n503_n500# a_n1743_n722# sky130_fd_pr__nfet_g5v0d10v5 ad=0p pd=0u as=1.45e+12p ps=1.058e+07u w=5e+06u l=500000u
X9 a_129_n500# a_29_n588# a_n29_n500# a_n1743_n722# sky130_fd_pr__nfet_g5v0d10v5 ad=0p pd=0u as=1.45e+12p ps=1.058e+07u w=5e+06u l=500000u
X10 a_445_n500# a_345_n588# a_287_n500# a_n1743_n722# sky130_fd_pr__nfet_g5v0d10v5 ad=1.45e+12p pd=1.058e+07u as=0p ps=0u w=5e+06u l=500000u
X11 a_n1451_n500# a_n1551_n588# a_n1609_n500# a_n1743_n722# sky130_fd_pr__nfet_g5v0d10v5 ad=0p pd=0u as=1.45e+12p ps=1.058e+07u w=5e+06u l=500000u
X12 a_1551_n500# a_1451_n588# a_1393_n500# a_n1743_n722# sky130_fd_pr__nfet_g5v0d10v5 ad=1.45e+12p pd=1.058e+07u as=0p ps=0u w=5e+06u l=500000u
X13 a_n977_n500# a_n1077_n588# a_n1135_n500# a_n1743_n722# sky130_fd_pr__nfet_g5v0d10v5 ad=0p pd=0u as=1.45e+12p ps=1.058e+07u w=5e+06u l=500000u
X14 a_n503_n500# a_n603_n588# a_n661_n500# a_n1743_n722# sky130_fd_pr__nfet_g5v0d10v5 ad=0p pd=0u as=0p ps=0u w=5e+06u l=500000u
X15 a_1077_n500# a_977_n588# a_919_n500# a_n1743_n722# sky130_fd_pr__nfet_g5v0d10v5 ad=1.45e+12p pd=1.058e+07u as=0p ps=0u w=5e+06u l=500000u
X16 a_n29_n500# a_n129_n588# a_n187_n500# a_n1743_n722# sky130_fd_pr__nfet_g5v0d10v5 ad=0p pd=0u as=0p ps=0u w=5e+06u l=500000u
X17 a_603_n500# a_503_n588# a_445_n500# a_n1743_n722# sky130_fd_pr__nfet_g5v0d10v5 ad=0p pd=0u as=0p ps=0u w=5e+06u l=500000u
X18 a_n1135_n500# a_n1235_n588# a_n1293_n500# a_n1743_n722# sky130_fd_pr__nfet_g5v0d10v5 ad=0p pd=0u as=0p ps=0u w=5e+06u l=500000u
X19 a_1235_n500# a_1135_n588# a_1077_n500# a_n1743_n722# sky130_fd_pr__nfet_g5v0d10v5 ad=0p pd=0u as=0p ps=0u w=5e+06u l=500000u
C0 a_503_n588# a_n603_n588# 0.01fF
C1 a_187_n588# a_n761_n588# 0.01fF
C2 a_n819_n500# a_n1451_n500# 0.11fF
C3 a_n1077_n588# a_n603_n588# 0.02fF
C4 a_919_n500# a_1235_n500# 0.24fF
C5 a_1293_n588# a_661_n588# 0.02fF
C6 a_n1077_n588# a_n1235_n588# 0.12fF
C7 a_29_n588# a_977_n588# 0.01fF
C8 a_603_n500# a_1077_n500# 0.15fF
C9 a_n1077_n588# a_503_n588# 0.01fF
C10 a_n29_n500# a_n1135_n500# 0.06fF
C11 a_n187_n500# a_n977_n500# 0.09fF
C12 a_n29_n500# a_129_n500# 0.56fF
C13 a_n129_n588# a_1451_n588# 0.01fF
C14 a_345_n588# a_n445_n588# 0.01fF
C15 a_1135_n588# a_819_n588# 0.04fF
C16 a_n287_n588# a_n1393_n588# 0.01fF
C17 a_n919_n588# a_n603_n588# 0.04fF
C18 a_n919_n588# a_n1235_n588# 0.04fF
C19 a_n661_n500# a_919_n500# 0.04fF
C20 a_n187_n500# a_603_n500# 0.09fF
C21 a_n819_n500# a_n661_n500# 0.56fF
C22 a_n187_n500# a_n1609_n500# 0.05fF
C23 a_819_n588# a_29_n588# 0.01fF
C24 a_187_n588# a_661_n588# 0.02fF
C25 a_n919_n588# a_503_n588# 0.01fF
C26 a_n1077_n588# a_n919_n588# 0.12fF
C27 a_129_n500# a_761_n500# 0.11fF
C28 a_1077_n500# a_1235_n500# 0.56fF
C29 a_345_n588# a_1451_n588# 0.01fF
C30 a_n29_n500# a_n345_n500# 0.24fF
C31 a_603_n500# a_1393_n500# 0.09fF
C32 a_n187_n500# a_n1451_n500# 0.05fF
C33 a_n187_n500# a_1235_n500# 0.05fF
C34 a_n129_n588# a_n287_n588# 0.12fF
C35 a_n1393_n588# a_187_n588# 0.01fF
C36 a_287_n500# a_n977_n500# 0.05fF
C37 a_29_n588# a_n761_n588# 0.01fF
C38 a_n603_n588# a_977_n588# 0.01fF
C39 a_n345_n500# a_761_n500# 0.06fF
C40 a_1293_n588# a_n129_n588# 0.01fF
C41 a_1235_n500# a_1393_n500# 0.56fF
C42 a_n29_n500# a_919_n500# 0.07fF
C43 a_503_n588# a_977_n588# 0.02fF
C44 a_287_n500# a_603_n500# 0.24fF
C45 a_n187_n500# a_n661_n500# 0.15fF
C46 a_n29_n500# a_n819_n500# 0.09fF
C47 a_129_n500# a_n1135_n500# 0.05fF
C48 a_n977_n500# a_445_n500# 0.05fF
C49 a_345_n588# a_n287_n588# 0.02fF
C50 a_n977_n500# a_n1293_n500# 0.24fF
C51 a_1135_n588# a_661_n588# 0.02fF
C52 a_1551_n500# a_603_n500# 0.07fF
C53 a_n445_n588# a_n287_n588# 0.12fF
C54 a_n603_n588# a_819_n588# 0.01fF
C55 a_n1551_n588# a_29_n588# 0.01fF
C56 a_345_n588# a_1293_n588# 0.01fF
C57 a_445_n500# a_603_n500# 0.56fF
C58 a_761_n500# a_919_n500# 0.56fF
C59 a_29_n588# a_661_n588# 0.02fF
C60 a_n129_n588# a_187_n588# 0.04fF
C61 a_n819_n500# a_761_n500# 0.04fF
C62 a_n1609_n500# a_n1293_n500# 0.24fF
C63 a_287_n500# a_1235_n500# 0.07fF
C64 a_503_n588# a_819_n588# 0.04fF
C65 a_n503_n500# a_n977_n500# 0.15fF
C66 a_n345_n500# a_n1135_n500# 0.09fF
C67 a_129_n500# a_n345_n500# 0.15fF
C68 a_n29_n500# a_1077_n500# 0.06fF
C69 a_1551_n500# a_1235_n500# 0.24fF
C70 a_n1451_n500# a_n1293_n500# 0.56fF
C71 a_n503_n500# a_603_n500# 0.06fF
C72 a_445_n500# a_1235_n500# 0.09fF
C73 a_n603_n588# a_n761_n588# 0.12fF
C74 a_n503_n500# a_n1609_n500# 0.06fF
C75 a_345_n588# a_187_n588# 0.12fF
C76 a_n1235_n588# a_n761_n588# 0.02fF
C77 a_29_n588# a_n1393_n588# 0.01fF
C78 a_287_n500# a_n661_n500# 0.07fF
C79 a_1293_n588# a_1451_n588# 0.12fF
C80 a_n187_n500# a_n29_n500# 0.56fF
C81 a_n445_n588# a_187_n588# 0.02fF
C82 a_761_n500# a_1077_n500# 0.24fF
C83 a_503_n588# a_n761_n588# 0.01fF
C84 a_n1077_n588# a_n761_n588# 0.04fF
C85 a_129_n500# a_919_n500# 0.09fF
C86 a_n503_n500# a_n1451_n500# 0.07fF
C87 a_n819_n500# a_n1135_n500# 0.24fF
C88 a_129_n500# a_n819_n500# 0.07fF
C89 a_n661_n500# a_445_n500# 0.06fF
C90 a_n29_n500# a_1393_n500# 0.05fF
C91 a_1135_n588# a_n129_n588# 0.01fF
C92 a_n661_n500# a_n1293_n500# 0.11fF
C93 a_n187_n500# a_761_n500# 0.07fF
C94 a_n1551_n588# a_n603_n588# 0.01fF
C95 a_n1551_n588# a_n1235_n588# 0.04fF
C96 a_n603_n588# a_661_n588# 0.01fF
C97 a_1451_n588# a_187_n588# 0.01fF
C98 a_n919_n588# a_n761_n588# 0.12fF
C99 a_n129_n588# a_29_n588# 0.12fF
C100 a_n345_n500# a_919_n500# 0.05fF
C101 a_1293_n588# a_n287_n588# 0.01fF
C102 a_n1077_n588# a_n1551_n588# 0.02fF
C103 a_503_n588# a_661_n588# 0.12fF
C104 a_761_n500# a_1393_n500# 0.11fF
C105 a_819_n588# a_977_n588# 0.12fF
C106 a_n819_n500# a_n345_n500# 0.15fF
C107 a_n661_n500# a_n503_n500# 0.56fF
C108 a_n29_n500# a_287_n500# 0.24fF
C109 a_345_n588# a_1135_n588# 0.01fF
C110 a_129_n500# a_1077_n500# 0.07fF
C111 a_1135_n588# a_n445_n588# 0.01fF
C112 a_n603_n588# a_n1393_n588# 0.01fF
C113 a_n29_n500# a_1551_n500# 0.04fF
C114 a_n1393_n588# a_n1235_n588# 0.12fF
C115 a_n919_n588# a_n1551_n588# 0.02fF
C116 a_345_n588# a_29_n588# 0.04fF
C117 a_n187_n500# a_n1135_n500# 0.07fF
C118 a_n187_n500# a_129_n500# 0.24fF
C119 a_n919_n588# a_661_n588# 0.01fF
C120 a_n29_n500# a_445_n500# 0.15fF
C121 a_n445_n588# a_29_n588# 0.02fF
C122 a_287_n500# a_761_n500# 0.15fF
C123 a_n29_n500# a_n1293_n500# 0.05fF
C124 a_n287_n588# a_187_n588# 0.02fF
C125 a_n1077_n588# a_n1393_n588# 0.04fF
C126 a_n345_n500# a_1077_n500# 0.05fF
C127 a_1551_n500# a_761_n500# 0.09fF
C128 a_1135_n588# a_1451_n588# 0.04fF
C129 a_1293_n588# a_187_n588# 0.01fF
C130 a_129_n500# a_1393_n500# 0.05fF
C131 a_761_n500# a_445_n500# 0.24fF
C132 a_n187_n500# a_n345_n500# 0.56fF
C133 a_n29_n500# a_n503_n500# 0.15fF
C134 a_n919_n588# a_n1393_n588# 0.02fF
C135 a_n129_n588# a_n603_n588# 0.02fF
C136 a_1451_n588# a_29_n588# 0.01fF
C137 a_n129_n588# a_n1235_n588# 0.01fF
C138 a_819_n588# a_n761_n588# 0.01fF
C139 a_n129_n588# a_503_n588# 0.02fF
C140 a_977_n588# a_661_n588# 0.04fF
C141 a_919_n500# a_1077_n500# 0.56fF
C142 a_n1077_n588# a_n129_n588# 0.01fF
C143 a_287_n500# a_n1135_n500# 0.05fF
C144 a_129_n500# a_287_n500# 0.56fF
C145 a_n977_n500# a_603_n500# 0.04fF
C146 a_n503_n500# a_761_n500# 0.05fF
C147 a_n977_n500# a_n1609_n500# 0.11fF
C148 a_345_n588# a_n603_n588# 0.01fF
C149 a_1135_n588# a_n287_n588# 0.01fF
C150 a_129_n500# a_1551_n500# 0.05fF
C151 a_345_n588# a_n1235_n588# 0.01fF
C152 a_n187_n500# a_919_n500# 0.06fF
C153 a_n445_n588# a_n603_n588# 0.12fF
C154 a_n187_n500# a_n819_n500# 0.11fF
C155 a_n1135_n500# a_445_n500# 0.04fF
C156 a_n445_n588# a_n1235_n588# 0.01fF
C157 a_n919_n588# a_n129_n588# 0.01fF
C158 a_1293_n588# a_1135_n588# 0.12fF
C159 a_129_n500# a_445_n500# 0.24fF
C160 a_345_n588# a_503_n588# 0.12fF
C161 a_n977_n500# a_n1451_n500# 0.15fF
C162 a_n1135_n500# a_n1293_n500# 0.56fF
C163 a_129_n500# a_n1293_n500# 0.05fF
C164 a_819_n588# a_661_n588# 0.12fF
C165 a_n287_n588# a_29_n588# 0.04fF
C166 a_n1077_n588# a_345_n588# 0.01fF
C167 a_287_n500# a_n345_n500# 0.11fF
C168 a_503_n588# a_n445_n588# 0.01fF
C169 a_n1077_n588# a_n445_n588# 0.02fF
C170 a_919_n500# a_1393_n500# 0.15fF
C171 a_1293_n588# a_29_n588# 0.01fF
C172 a_n1609_n500# a_n1451_n500# 0.56fF
C173 a_603_n500# a_1235_n500# 0.11fF
C174 a_n503_n500# a_n1135_n500# 0.11fF
C175 a_129_n500# a_n503_n500# 0.11fF
C176 a_n919_n588# a_345_n588# 0.01fF
C177 a_n345_n500# a_445_n500# 0.09fF
C178 a_n187_n500# a_1077_n500# 0.05fF
C179 a_n345_n500# a_n1293_n500# 0.07fF
C180 a_n1551_n588# a_n761_n588# 0.01fF
C181 a_n661_n500# a_n977_n500# 0.24fF
C182 a_1135_n588# a_187_n588# 0.01fF
C183 a_n919_n588# a_n445_n588# 0.02fF
C184 a_503_n588# a_1451_n588# 0.01fF
C185 a_n761_n588# a_661_n588# 0.01fF
C186 a_287_n500# a_919_n500# 0.11fF
C187 a_n129_n588# a_977_n588# 0.01fF
C188 a_287_n500# a_n819_n500# 0.06fF
C189 a_n661_n500# a_603_n500# 0.05fF
C190 a_29_n588# a_187_n588# 0.12fF
C191 a_1077_n500# a_1393_n500# 0.24fF
C192 a_n661_n500# a_n1609_n500# 0.07fF
C193 a_1551_n500# a_919_n500# 0.11fF
C194 a_n503_n500# a_n345_n500# 0.56fF
C195 a_919_n500# a_445_n500# 0.15fF
C196 a_n1393_n588# a_n761_n588# 0.02fF
C197 a_n287_n588# a_n603_n588# 0.04fF
C198 a_n819_n500# a_445_n500# 0.05fF
C199 a_n187_n500# a_1393_n500# 0.04fF
C200 a_n287_n588# a_n1235_n588# 0.01fF
C201 a_n661_n500# a_n1451_n500# 0.09fF
C202 a_n819_n500# a_n1293_n500# 0.15fF
C203 a_345_n588# a_977_n588# 0.02fF
C204 a_n129_n588# a_819_n588# 0.01fF
C205 a_n445_n588# a_977_n588# 0.01fF
C206 a_503_n588# a_n287_n588# 0.01fF
C207 a_287_n500# a_1077_n500# 0.09fF
C208 a_n1077_n588# a_n287_n588# 0.01fF
C209 a_n29_n500# a_n977_n500# 0.07fF
C210 a_n503_n500# a_919_n500# 0.05fF
C211 a_1293_n588# a_503_n588# 0.01fF
C212 a_1551_n500# a_1077_n500# 0.15fF
C213 a_n819_n500# a_n503_n500# 0.24fF
C214 a_n187_n500# a_287_n500# 0.15fF
C215 a_n1551_n588# a_n1393_n588# 0.12fF
C216 a_n29_n500# a_603_n500# 0.11fF
C217 a_345_n588# a_819_n588# 0.02fF
C218 a_445_n500# a_1077_n500# 0.11fF
C219 a_1135_n588# a_29_n588# 0.01fF
C220 a_n29_n500# a_n1609_n500# 0.04fF
C221 a_n919_n588# a_n287_n588# 0.02fF
C222 a_n129_n588# a_n761_n588# 0.02fF
C223 a_1451_n588# a_977_n588# 0.02fF
C224 a_n445_n588# a_819_n588# 0.01fF
C225 a_n603_n588# a_187_n588# 0.01fF
C226 a_187_n588# a_n1235_n588# 0.01fF
C227 a_287_n500# a_1393_n500# 0.06fF
C228 a_n187_n500# a_445_n500# 0.11fF
C229 a_n187_n500# a_n1293_n500# 0.06fF
C230 a_n29_n500# a_n1451_n500# 0.05fF
C231 a_761_n500# a_603_n500# 0.56fF
C232 a_503_n588# a_187_n588# 0.04fF
C233 a_n1077_n588# a_187_n588# 0.01fF
C234 a_n29_n500# a_1235_n500# 0.05fF
C235 a_n503_n500# a_1077_n500# 0.04fF
C236 a_1551_n500# a_1393_n500# 0.56fF
C237 a_345_n588# a_n761_n588# 0.01fF
C238 a_819_n588# a_1451_n588# 0.02fF
C239 a_n1551_n588# a_n129_n588# 0.01fF
C240 a_445_n500# a_1393_n500# 0.07fF
C241 a_n445_n588# a_n761_n588# 0.04fF
C242 a_n129_n588# a_661_n588# 0.01fF
C243 a_n187_n500# a_n503_n500# 0.24fF
C244 a_n287_n588# a_977_n588# 0.01fF
C245 a_n919_n588# a_187_n588# 0.01fF
C246 a_761_n500# a_1235_n500# 0.15fF
C247 a_n1135_n500# a_n977_n500# 0.56fF
C248 a_n29_n500# a_n661_n500# 0.11fF
C249 a_129_n500# a_n977_n500# 0.06fF
C250 a_287_n500# a_1551_n500# 0.05fF
C251 a_1293_n588# a_977_n588# 0.04fF
C252 a_129_n500# a_603_n500# 0.15fF
C253 a_287_n500# a_445_n500# 0.56fF
C254 a_n1135_n500# a_n1609_n500# 0.15fF
C255 a_345_n588# a_661_n588# 0.04fF
C256 a_n129_n588# a_n1393_n588# 0.01fF
C257 a_287_n500# a_n1293_n500# 0.04fF
C258 a_n1551_n588# a_n445_n588# 0.01fF
C259 a_1135_n588# a_503_n588# 0.02fF
C260 a_n661_n500# a_761_n500# 0.05fF
C261 a_n445_n588# a_661_n588# 0.01fF
C262 a_n287_n588# a_819_n588# 0.01fF
C263 a_n603_n588# a_29_n588# 0.02fF
C264 a_1551_n500# a_445_n500# 0.06fF
C265 a_n345_n500# a_n977_n500# 0.11fF
C266 a_29_n588# a_n1235_n588# 0.01fF
C267 a_n1135_n500# a_n1451_n500# 0.24fF
C268 a_1293_n588# a_819_n588# 0.02fF
C269 a_129_n500# a_n1451_n500# 0.04fF
C270 a_503_n588# a_29_n588# 0.02fF
C271 a_977_n588# a_187_n588# 0.01fF
C272 a_287_n500# a_n503_n500# 0.09fF
C273 a_n1077_n588# a_29_n588# 0.01fF
C274 a_129_n500# a_1235_n500# 0.06fF
C275 a_n345_n500# a_603_n500# 0.07fF
C276 a_n345_n500# a_n1609_n500# 0.05fF
C277 a_1451_n588# a_661_n588# 0.01fF
C278 a_n445_n588# a_n1393_n588# 0.01fF
C279 a_n287_n588# a_n761_n588# 0.02fF
C280 a_n503_n500# a_445_n500# 0.07fF
C281 a_n919_n588# a_29_n588# 0.01fF
C282 a_n503_n500# a_n1293_n500# 0.09fF
C283 a_n345_n500# a_n1451_n500# 0.06fF
C284 a_n661_n500# a_n1135_n500# 0.15fF
C285 a_n819_n500# a_n977_n500# 0.56fF
C286 a_129_n500# a_n661_n500# 0.09fF
C287 a_819_n588# a_187_n588# 0.02fF
C288 a_n345_n500# a_1235_n500# 0.04fF
C289 a_n29_n500# a_761_n500# 0.09fF
C290 a_919_n500# a_603_n500# 0.24fF
C291 a_n819_n500# a_603_n500# 0.05fF
C292 a_n819_n500# a_n1609_n500# 0.09fF
C293 a_345_n588# a_n129_n588# 0.02fF
C294 a_n1551_n588# a_n287_n588# 0.01fF
C295 a_n603_n588# a_n1235_n588# 0.02fF
C296 a_n129_n588# a_n445_n588# 0.04fF
C297 a_1135_n588# a_977_n588# 0.12fF
C298 a_n287_n588# a_661_n588# 0.01fF
C299 a_n661_n500# a_n345_n500# 0.24fF
C300 a_1551_n500# a_n1743_n722# 0.30fF
C301 a_1393_n500# a_n1743_n722# 0.13fF
C302 a_1235_n500# a_n1743_n722# 0.09fF
C303 a_1077_n500# a_n1743_n722# 0.07fF
C304 a_919_n500# a_n1743_n722# 0.06fF
C305 a_761_n500# a_n1743_n722# 0.05fF
C306 a_603_n500# a_n1743_n722# 0.05fF
C307 a_445_n500# a_n1743_n722# 0.04fF
C308 a_287_n500# a_n1743_n722# 0.04fF
C309 a_129_n500# a_n1743_n722# 0.04fF
C310 a_n29_n500# a_n1743_n722# 0.02fF
C311 a_n187_n500# a_n1743_n722# 0.04fF
C312 a_n345_n500# a_n1743_n722# 0.04fF
C313 a_n503_n500# a_n1743_n722# 0.04fF
C314 a_n661_n500# a_n1743_n722# 0.05fF
C315 a_n819_n500# a_n1743_n722# 0.05fF
C316 a_n977_n500# a_n1743_n722# 0.06fF
C317 a_n1135_n500# a_n1743_n722# 0.07fF
C318 a_n1293_n500# a_n1743_n722# 0.09fF
C319 a_n1451_n500# a_n1743_n722# 0.13fF
C320 a_n1609_n500# a_n1743_n722# 0.30fF
C321 a_1451_n588# a_n1743_n722# 0.28fF
C322 a_1293_n588# a_n1743_n722# 0.23fF
C323 a_1135_n588# a_n1743_n722# 0.24fF
C324 a_977_n588# a_n1743_n722# 0.25fF
C325 a_819_n588# a_n1743_n722# 0.26fF
C326 a_661_n588# a_n1743_n722# 0.26fF
C327 a_503_n588# a_n1743_n722# 0.27fF
C328 a_345_n588# a_n1743_n722# 0.28fF
C329 a_187_n588# a_n1743_n722# 0.28fF
C330 a_29_n588# a_n1743_n722# 0.28fF
C331 a_n129_n588# a_n1743_n722# 0.28fF
C332 a_n287_n588# a_n1743_n722# 0.28fF
C333 a_n445_n588# a_n1743_n722# 0.28fF
C334 a_n603_n588# a_n1743_n722# 0.28fF
C335 a_n761_n588# a_n1743_n722# 0.28fF
C336 a_n919_n588# a_n1743_n722# 0.28fF
C337 a_n1077_n588# a_n1743_n722# 0.28fF
C338 a_n1235_n588# a_n1743_n722# 0.29fF
C339 a_n1393_n588# a_n1743_n722# 0.29fF
C340 a_n1551_n588# a_n1743_n722# 0.34fF
.ends

.subckt sky130_fd_pr__pfet_g5v0d10v5_CADZ46 a_n1608_n500# a_28_n596# a_n976_n500#
+ a_n1134_n500# a_n128_n596# a_186_n596# a_128_n500# a_n502_n500# a_n1292_n500# a_818_n596#
+ a_n286_n596# a_n1076_n596# a_344_n596# a_286_n500# a_n660_n500# a_n918_n596# a_976_n596#
+ a_n444_n596# a_n1450_n500# a_n1234_n596# a_918_n500# a_502_n596# w_n1808_n796# a_444_n500#
+ a_n602_n596# a_1134_n596# a_660_n596# a_n1392_n596# a_1076_n500# a_602_n500# a_1292_n596#
+ a_n760_n596# a_n1550_n596# a_1234_n500# a_760_n500# a_1450_n596# a_1392_n500# a_n28_n500#
+ a_n186_n500# a_1550_n500# a_n818_n500# a_n344_n500# VSUBS
X0 a_602_n500# a_502_n596# a_444_n500# w_n1808_n796# sky130_fd_pr__pfet_g5v0d10v5 ad=1.45e+12p pd=1.058e+07u as=1.45e+12p ps=1.058e+07u w=5e+06u l=500000u
X1 a_n28_n500# a_n128_n596# a_n186_n500# w_n1808_n796# sky130_fd_pr__pfet_g5v0d10v5 ad=1.4e+12p pd=1.056e+07u as=1.45e+12p ps=1.058e+07u w=5e+06u l=500000u
X2 a_n1134_n500# a_n1234_n596# a_n1292_n500# w_n1808_n796# sky130_fd_pr__pfet_g5v0d10v5 ad=1.45e+12p pd=1.058e+07u as=1.45e+12p ps=1.058e+07u w=5e+06u l=500000u
X3 a_1234_n500# a_1134_n596# a_1076_n500# w_n1808_n796# sky130_fd_pr__pfet_g5v0d10v5 ad=1.45e+12p pd=1.058e+07u as=1.45e+12p ps=1.058e+07u w=5e+06u l=500000u
X4 a_n660_n500# a_n760_n596# a_n818_n500# w_n1808_n796# sky130_fd_pr__pfet_g5v0d10v5 ad=1.45e+12p pd=1.058e+07u as=1.45e+12p ps=1.058e+07u w=5e+06u l=500000u
X5 a_n818_n500# a_n918_n596# a_n976_n500# w_n1808_n796# sky130_fd_pr__pfet_g5v0d10v5 ad=0p pd=0u as=1.45e+12p ps=1.058e+07u w=5e+06u l=500000u
X6 a_918_n500# a_818_n596# a_760_n500# w_n1808_n796# sky130_fd_pr__pfet_g5v0d10v5 ad=1.45e+12p pd=1.058e+07u as=1.45e+12p ps=1.058e+07u w=5e+06u l=500000u
X7 a_n186_n500# a_n286_n596# a_n344_n500# w_n1808_n796# sky130_fd_pr__pfet_g5v0d10v5 ad=0p pd=0u as=1.45e+12p ps=1.058e+07u w=5e+06u l=500000u
X8 a_760_n500# a_660_n596# a_602_n500# w_n1808_n796# sky130_fd_pr__pfet_g5v0d10v5 ad=0p pd=0u as=0p ps=0u w=5e+06u l=500000u
X9 a_n1450_n500# a_n1550_n596# a_n1608_n500# w_n1808_n796# sky130_fd_pr__pfet_g5v0d10v5 ad=1.45e+12p pd=1.058e+07u as=1.45e+12p ps=1.058e+07u w=5e+06u l=500000u
X10 a_286_n500# a_186_n596# a_128_n500# w_n1808_n796# sky130_fd_pr__pfet_g5v0d10v5 ad=1.45e+12p pd=1.058e+07u as=1.45e+12p ps=1.058e+07u w=5e+06u l=500000u
X11 a_n1292_n500# a_n1392_n596# a_n1450_n500# w_n1808_n796# sky130_fd_pr__pfet_g5v0d10v5 ad=0p pd=0u as=0p ps=0u w=5e+06u l=500000u
X12 a_1392_n500# a_1292_n596# a_1234_n500# w_n1808_n796# sky130_fd_pr__pfet_g5v0d10v5 ad=1.45e+12p pd=1.058e+07u as=0p ps=0u w=5e+06u l=500000u
X13 a_n344_n500# a_n444_n596# a_n502_n500# w_n1808_n796# sky130_fd_pr__pfet_g5v0d10v5 ad=0p pd=0u as=1.45e+12p ps=1.058e+07u w=5e+06u l=500000u
X14 a_128_n500# a_28_n596# a_n28_n500# w_n1808_n796# sky130_fd_pr__pfet_g5v0d10v5 ad=0p pd=0u as=0p ps=0u w=5e+06u l=500000u
X15 a_444_n500# a_344_n596# a_286_n500# w_n1808_n796# sky130_fd_pr__pfet_g5v0d10v5 ad=0p pd=0u as=0p ps=0u w=5e+06u l=500000u
X16 a_1550_n500# a_1450_n596# a_1392_n500# w_n1808_n796# sky130_fd_pr__pfet_g5v0d10v5 ad=1.45e+12p pd=1.058e+07u as=0p ps=0u w=5e+06u l=500000u
X17 a_n976_n500# a_n1076_n596# a_n1134_n500# w_n1808_n796# sky130_fd_pr__pfet_g5v0d10v5 ad=0p pd=0u as=0p ps=0u w=5e+06u l=500000u
X18 a_n502_n500# a_n602_n596# a_n660_n500# w_n1808_n796# sky130_fd_pr__pfet_g5v0d10v5 ad=0p pd=0u as=0p ps=0u w=5e+06u l=500000u
X19 a_1076_n500# a_976_n596# a_918_n500# w_n1808_n796# sky130_fd_pr__pfet_g5v0d10v5 ad=0p pd=0u as=0p ps=0u w=5e+06u l=500000u
C0 a_n1234_n596# a_n918_n596# 0.04fF
C1 a_344_n596# a_n602_n596# 0.01fF
C2 a_602_n500# a_n818_n500# 0.05fF
C3 a_1550_n500# w_n1808_n796# 0.30fF
C4 a_286_n500# a_n344_n500# 0.11fF
C5 a_344_n596# a_n286_n596# 0.02fF
C6 a_n1450_n500# a_n186_n500# 0.05fF
C7 a_n976_n500# w_n1808_n796# 0.06fF
C8 a_1234_n500# a_444_n500# 0.09fF
C9 a_n760_n596# a_502_n596# 0.01fF
C10 a_n502_n500# a_1076_n500# 0.04fF
C11 a_n760_n596# w_n1808_n796# 0.24fF
C12 a_128_n500# a_n28_n500# 0.56fF
C13 a_n444_n596# a_n602_n596# 0.12fF
C14 a_1292_n596# a_818_n596# 0.02fF
C15 a_1550_n500# a_760_n500# 0.09fF
C16 a_n444_n596# a_n286_n596# 0.12fF
C17 a_n918_n596# a_502_n596# 0.01fF
C18 a_976_n596# a_502_n596# 0.02fF
C19 a_n1076_n596# a_n602_n596# 0.02fF
C20 a_n1550_n596# a_n760_n596# 0.01fF
C21 a_n28_n500# a_n1450_n500# 0.05fF
C22 a_n918_n596# w_n1808_n796# 0.24fF
C23 a_n976_n500# a_n344_n500# 0.11fF
C24 a_n1076_n596# a_n286_n596# 0.01fF
C25 a_976_n596# w_n1808_n796# 0.20fF
C26 a_286_n500# a_1076_n500# 0.09fF
C27 a_344_n596# a_n444_n596# 0.01fF
C28 a_918_n500# a_602_n500# 0.24fF
C29 a_n128_n596# a_n760_n596# 0.02fF
C30 a_602_n500# a_1392_n500# 0.09fF
C31 a_n660_n500# a_444_n500# 0.06fF
C32 a_344_n596# a_n1076_n596# 0.01fF
C33 a_n660_n500# a_n1292_n500# 0.11fF
C34 a_n1550_n596# a_n918_n596# 0.02fF
C35 a_1134_n596# a_n286_n596# 0.01fF
C36 a_128_n500# w_n1808_n796# 0.04fF
C37 a_n128_n596# a_n918_n596# 0.01fF
C38 a_286_n500# a_1234_n500# 0.07fF
C39 a_n128_n596# a_976_n596# 0.01fF
C40 a_28_n596# a_n760_n596# 0.01fF
C41 a_344_n596# a_1134_n596# 0.01fF
C42 a_n660_n500# a_n502_n500# 0.56fF
C43 a_n818_n500# a_n1134_n500# 0.24fF
C44 a_1076_n500# a_1550_n500# 0.15fF
C45 a_n444_n596# a_n1076_n596# 0.02fF
C46 a_602_n500# a_n186_n500# 0.09fF
C47 a_n1450_n500# w_n1808_n796# 0.13fF
C48 a_n760_n596# a_186_n596# 0.01fF
C49 a_n818_n500# a_n186_n500# 0.11fF
C50 a_128_n500# a_760_n500# 0.11fF
C51 a_660_n596# a_n760_n596# 0.01fF
C52 a_28_n596# a_n918_n596# 0.01fF
C53 a_918_n500# a_1392_n500# 0.15fF
C54 a_n660_n500# a_n1608_n500# 0.07fF
C55 a_28_n596# a_976_n596# 0.01fF
C56 a_128_n500# a_n344_n500# 0.15fF
C57 a_n444_n596# a_1134_n596# 0.01fF
C58 a_1550_n500# a_1234_n500# 0.24fF
C59 a_186_n596# a_n918_n596# 0.01fF
C60 a_976_n596# a_186_n596# 0.01fF
C61 a_n660_n500# a_286_n500# 0.07fF
C62 a_660_n596# a_n918_n596# 0.01fF
C63 a_n1234_n596# a_n602_n596# 0.02fF
C64 a_602_n500# a_n28_n500# 0.11fF
C65 a_n1450_n500# a_n344_n500# 0.06fF
C66 a_n502_n500# a_444_n500# 0.07fF
C67 a_n1234_n596# a_n286_n596# 0.01fF
C68 a_976_n596# a_660_n596# 0.04fF
C69 a_n818_n500# a_n28_n500# 0.09fF
C70 a_n502_n500# a_n1292_n500# 0.09fF
C71 a_344_n596# a_n1234_n596# 0.01fF
C72 a_918_n500# a_n186_n500# 0.06fF
C73 a_1392_n500# a_n186_n500# 0.04fF
C74 a_128_n500# a_1076_n500# 0.07fF
C75 a_n1608_n500# a_n1292_n500# 0.24fF
C76 a_n602_n596# a_502_n596# 0.01fF
C77 a_n1392_n596# a_n760_n596# 0.02fF
C78 a_n286_n596# a_502_n596# 0.01fF
C79 a_n660_n500# a_n976_n500# 0.24fF
C80 a_286_n500# a_444_n500# 0.56fF
C81 a_n602_n596# w_n1808_n796# 0.24fF
C82 a_976_n596# a_1450_n596# 0.02fF
C83 a_n286_n596# w_n1808_n796# 0.24fF
C84 a_n186_n500# a_n1134_n500# 0.07fF
C85 a_n444_n596# a_n1234_n596# 0.01fF
C86 a_286_n500# a_n1292_n500# 0.04fF
C87 a_602_n500# w_n1808_n796# 0.05fF
C88 a_344_n596# a_502_n596# 0.12fF
C89 a_128_n500# a_1234_n500# 0.06fF
C90 a_n502_n500# a_n1608_n500# 0.06fF
C91 a_918_n500# a_n28_n500# 0.07fF
C92 a_n818_n500# w_n1808_n796# 0.05fF
C93 a_n28_n500# a_1392_n500# 0.05fF
C94 a_n1392_n596# a_n918_n596# 0.02fF
C95 a_818_n596# a_n760_n596# 0.01fF
C96 a_n1234_n596# a_n1076_n596# 0.12fF
C97 a_344_n596# w_n1808_n796# 0.23fF
C98 a_n1550_n596# a_n602_n596# 0.01fF
C99 a_n1550_n596# a_n286_n596# 0.01fF
C100 a_286_n500# a_n502_n500# 0.09fF
C101 a_n128_n596# a_n602_n596# 0.02fF
C102 a_602_n500# a_760_n500# 0.56fF
C103 a_1550_n500# a_444_n500# 0.06fF
C104 a_n128_n596# a_n286_n596# 0.12fF
C105 a_444_n500# a_n976_n500# 0.05fF
C106 a_n444_n596# a_502_n596# 0.01fF
C107 a_n28_n500# a_n1134_n500# 0.06fF
C108 a_760_n500# a_n818_n500# 0.04fF
C109 a_602_n500# a_n344_n500# 0.07fF
C110 a_1292_n596# a_976_n596# 0.04fF
C111 a_976_n596# a_818_n596# 0.12fF
C112 a_n976_n500# a_n1292_n500# 0.24fF
C113 a_n444_n596# w_n1808_n796# 0.24fF
C114 a_344_n596# a_n128_n596# 0.02fF
C115 a_n1076_n596# a_502_n596# 0.01fF
C116 a_n818_n500# a_n344_n500# 0.15fF
C117 a_n28_n500# a_n186_n500# 0.56fF
C118 a_n1076_n596# w_n1808_n796# 0.24fF
C119 a_n660_n500# a_128_n500# 0.09fF
C120 a_28_n596# a_n602_n596# 0.02fF
C121 a_918_n500# w_n1808_n796# 0.06fF
C122 a_1392_n500# w_n1808_n796# 0.13fF
C123 a_28_n596# a_n286_n596# 0.04fF
C124 a_n502_n500# a_n976_n500# 0.15fF
C125 a_n444_n596# a_n1550_n596# 0.01fF
C126 a_n602_n596# a_186_n596# 0.01fF
C127 a_1134_n596# a_502_n596# 0.02fF
C128 a_186_n596# a_n286_n596# 0.02fF
C129 a_n444_n596# a_n128_n596# 0.04fF
C130 a_n660_n500# a_n1450_n500# 0.09fF
C131 a_660_n596# a_n602_n596# 0.01fF
C132 a_28_n596# a_344_n596# 0.04fF
C133 a_n1550_n596# a_n1076_n596# 0.02fF
C134 a_1134_n596# w_n1808_n796# 0.20fF
C135 a_660_n596# a_n286_n596# 0.01fF
C136 a_918_n500# a_760_n500# 0.56fF
C137 a_1076_n500# a_602_n500# 0.15fF
C138 w_n1808_n796# a_n1134_n500# 0.07fF
C139 a_n128_n596# a_n1076_n596# 0.01fF
C140 a_n1608_n500# a_n976_n500# 0.11fF
C141 a_760_n500# a_1392_n500# 0.11fF
C142 a_344_n596# a_186_n596# 0.12fF
C143 a_918_n500# a_n344_n500# 0.05fF
C144 a_344_n596# a_660_n596# 0.04fF
C145 a_286_n500# a_1550_n500# 0.05fF
C146 a_n186_n500# w_n1808_n796# 0.04fF
C147 a_128_n500# a_444_n500# 0.24fF
C148 a_286_n500# a_n976_n500# 0.05fF
C149 a_28_n596# a_n444_n596# 0.02fF
C150 a_128_n500# a_n1292_n500# 0.05fF
C151 a_n128_n596# a_1134_n596# 0.01fF
C152 a_602_n500# a_1234_n500# 0.11fF
C153 a_n444_n596# a_186_n596# 0.02fF
C154 a_28_n596# a_n1076_n596# 0.01fF
C155 a_n344_n500# a_n1134_n500# 0.09fF
C156 a_n444_n596# a_660_n596# 0.01fF
C157 a_760_n500# a_n186_n500# 0.07fF
C158 a_n1450_n500# a_n1292_n500# 0.56fF
C159 a_n1076_n596# a_186_n596# 0.01fF
C160 a_128_n500# a_n502_n500# 0.11fF
C161 a_n28_n500# w_n1808_n796# 0.02fF
C162 a_n186_n500# a_n344_n500# 0.56fF
C163 a_n1392_n596# a_n602_n596# 0.01fF
C164 a_344_n596# a_1450_n596# 0.01fF
C165 a_28_n596# a_1134_n596# 0.01fF
C166 a_n1234_n596# w_n1808_n796# 0.24fF
C167 a_n1392_n596# a_n286_n596# 0.01fF
C168 a_918_n500# a_1076_n500# 0.56fF
C169 a_1076_n500# a_1392_n500# 0.24fF
C170 a_n502_n500# a_n1450_n500# 0.07fF
C171 a_186_n596# a_1134_n596# 0.01fF
C172 a_n660_n500# a_602_n500# 0.05fF
C173 a_660_n596# a_1134_n596# 0.02fF
C174 a_818_n596# a_n602_n596# 0.01fF
C175 a_760_n500# a_n28_n500# 0.09fF
C176 a_n1550_n596# a_n1234_n596# 0.04fF
C177 a_1292_n596# a_n286_n596# 0.01fF
C178 a_818_n596# a_n286_n596# 0.01fF
C179 a_918_n500# a_1234_n500# 0.24fF
C180 a_286_n500# a_128_n500# 0.56fF
C181 a_n660_n500# a_n818_n500# 0.56fF
C182 a_1234_n500# a_1392_n500# 0.56fF
C183 a_n1608_n500# a_n1450_n500# 0.56fF
C184 a_n28_n500# a_n344_n500# 0.24fF
C185 a_n128_n596# a_n1234_n596# 0.01fF
C186 a_502_n596# w_n1808_n796# 0.23fF
C187 a_1076_n500# a_n186_n500# 0.05fF
C188 a_344_n596# a_1292_n596# 0.01fF
C189 a_344_n596# a_818_n596# 0.02fF
C190 a_n444_n596# a_n1392_n596# 0.01fF
C191 a_n760_n596# a_n918_n596# 0.12fF
C192 a_n1392_n596# a_n1076_n596# 0.04fF
C193 a_1450_n596# a_1134_n596# 0.04fF
C194 a_28_n596# a_n1234_n596# 0.01fF
C195 a_602_n500# a_444_n500# 0.56fF
C196 a_128_n500# a_1550_n500# 0.05fF
C197 a_n1550_n596# w_n1808_n796# 0.30fF
C198 a_n128_n596# a_502_n596# 0.02fF
C199 a_128_n500# a_n976_n500# 0.06fF
C200 a_1234_n500# a_n186_n500# 0.05fF
C201 a_n444_n596# a_818_n596# 0.01fF
C202 a_760_n500# w_n1808_n796# 0.05fF
C203 a_n818_n500# a_444_n500# 0.05fF
C204 a_n1234_n596# a_186_n596# 0.01fF
C205 a_n128_n596# w_n1808_n796# 0.24fF
C206 a_n660_n500# a_918_n500# 0.04fF
C207 a_1076_n500# a_n28_n500# 0.06fF
C208 a_n818_n500# a_n1292_n500# 0.15fF
C209 a_n344_n500# w_n1808_n796# 0.04fF
C210 a_n1450_n500# a_n976_n500# 0.15fF
C211 a_n502_n500# a_602_n500# 0.06fF
C212 a_28_n596# a_502_n596# 0.02fF
C213 a_n128_n596# a_n1550_n596# 0.01fF
C214 a_n502_n500# a_n818_n500# 0.24fF
C215 a_n660_n500# a_n1134_n500# 0.15fF
C216 a_n28_n500# a_1234_n500# 0.05fF
C217 a_1292_n596# a_1134_n596# 0.12fF
C218 a_818_n596# a_1134_n596# 0.04fF
C219 a_28_n596# w_n1808_n796# 0.24fF
C220 a_760_n500# a_n344_n500# 0.06fF
C221 a_186_n596# a_502_n596# 0.04fF
C222 a_660_n596# a_502_n596# 0.12fF
C223 a_n660_n500# a_n186_n500# 0.15fF
C224 a_186_n596# w_n1808_n796# 0.24fF
C225 a_918_n500# a_444_n500# 0.15fF
C226 a_1392_n500# a_444_n500# 0.07fF
C227 a_n818_n500# a_n1608_n500# 0.09fF
C228 a_660_n596# w_n1808_n796# 0.22fF
C229 a_28_n596# a_n1550_n596# 0.01fF
C230 a_1076_n500# w_n1808_n796# 0.07fF
C231 a_286_n500# a_602_n500# 0.24fF
C232 a_28_n596# a_n128_n596# 0.13fF
C233 a_286_n500# a_n818_n500# 0.06fF
C234 a_n1234_n596# a_n1392_n596# 0.12fF
C235 a_444_n500# a_n1134_n500# 0.04fF
C236 a_n502_n500# a_918_n500# 0.05fF
C237 a_n128_n596# a_186_n596# 0.04fF
C238 a_n660_n500# a_n28_n500# 0.11fF
C239 a_128_n500# a_n1450_n500# 0.04fF
C240 a_1234_n500# w_n1808_n796# 0.09fF
C241 a_1076_n500# a_760_n500# 0.24fF
C242 a_n1292_n500# a_n1134_n500# 0.56fF
C243 a_n128_n596# a_660_n596# 0.01fF
C244 a_1450_n596# a_502_n596# 0.01fF
C245 a_444_n500# a_n186_n500# 0.11fF
C246 a_1076_n500# a_n344_n500# 0.05fF
C247 a_1450_n596# w_n1808_n796# 0.24fF
C248 a_n186_n500# a_n1292_n500# 0.06fF
C249 a_1550_n500# a_602_n500# 0.07fF
C250 a_602_n500# a_n976_n500# 0.04fF
C251 a_n502_n500# a_n1134_n500# 0.11fF
C252 a_n602_n596# a_n760_n596# 0.12fF
C253 a_28_n596# a_186_n596# 0.12fF
C254 a_760_n500# a_1234_n500# 0.15fF
C255 a_n818_n500# a_n976_n500# 0.56fF
C256 a_n760_n596# a_n286_n596# 0.02fF
C257 a_n1392_n596# w_n1808_n796# 0.25fF
C258 a_28_n596# a_660_n596# 0.02fF
C259 a_286_n500# a_918_n500# 0.11fF
C260 a_n502_n500# a_n186_n500# 0.24fF
C261 a_286_n500# a_1392_n500# 0.06fF
C262 a_1234_n500# a_n344_n500# 0.04fF
C263 a_n28_n500# a_444_n500# 0.15fF
C264 a_n128_n596# a_1450_n596# 0.01fF
C265 a_660_n596# a_186_n596# 0.02fF
C266 a_344_n596# a_n760_n596# 0.01fF
C267 a_n1608_n500# a_n1134_n500# 0.15fF
C268 a_n602_n596# a_n918_n596# 0.04fF
C269 a_1292_n596# a_502_n596# 0.01fF
C270 a_818_n596# a_502_n596# 0.04fF
C271 a_n660_n500# w_n1808_n796# 0.05fF
C272 a_n28_n500# a_n1292_n500# 0.05fF
C273 a_n918_n596# a_n286_n596# 0.02fF
C274 a_976_n596# a_n602_n596# 0.01fF