* NGSPICE file created from analog_top_v2.ext - technology: sky130A

.subckt sky130_fd_pr__nfet_g5v0d10v5_BRTJC6 a_n345_n500# a_1135_n588# a_n603_n588#
+ a_n1393_n588# a_n1609_n500# a_661_n588# a_n1135_n500# a_n977_n500# a_1293_n588#
+ a_n761_n588# a_n503_n500# a_n1551_n588# a_129_n500# a_n1293_n500# a_287_n500# a_n661_n500#
+ a_1451_n588# a_n1451_n500# a_919_n500# a_445_n500# a_1077_n500# a_29_n588# a_n129_n588#
+ a_603_n500# a_187_n588# a_1235_n500# a_n287_n588# a_761_n500# a_819_n588# a_345_n588#
+ a_n1077_n588# a_n29_n500# a_1393_n500# a_n919_n588# a_n1743_n722# a_n187_n500# a_977_n588#
+ a_n445_n588# a_503_n588# a_n1235_n588# a_1551_n500# a_n819_n500#
X0 a_n819_n500# a_n919_n588# a_n977_n500# a_n1743_n722# sky130_fd_pr__nfet_g5v0d10v5 ad=1.45e+12p pd=1.058e+07u as=1.45e+12p ps=1.058e+07u w=5e+06u l=500000u
X1 a_n661_n500# a_n761_n588# a_n819_n500# a_n1743_n722# sky130_fd_pr__nfet_g5v0d10v5 ad=1.45e+12p pd=1.058e+07u as=0p ps=0u w=5e+06u l=500000u
X2 a_919_n500# a_819_n588# a_761_n500# a_n1743_n722# sky130_fd_pr__nfet_g5v0d10v5 ad=1.45e+12p pd=1.058e+07u as=1.45e+12p ps=1.058e+07u w=5e+06u l=500000u
X3 a_n187_n500# a_n287_n588# a_n345_n500# a_n1743_n722# sky130_fd_pr__nfet_g5v0d10v5 ad=1.45e+12p pd=1.058e+07u as=1.45e+12p ps=1.058e+07u w=5e+06u l=500000u
X4 a_761_n500# a_661_n588# a_603_n500# a_n1743_n722# sky130_fd_pr__nfet_g5v0d10v5 ad=0p pd=0u as=1.45e+12p ps=1.058e+07u w=5e+06u l=500000u
X5 a_287_n500# a_187_n588# a_129_n500# a_n1743_n722# sky130_fd_pr__nfet_g5v0d10v5 ad=1.45e+12p pd=1.058e+07u as=1.45e+12p ps=1.058e+07u w=5e+06u l=500000u
X6 a_n1293_n500# a_n1393_n588# a_n1451_n500# a_n1743_n722# sky130_fd_pr__nfet_g5v0d10v5 ad=1.45e+12p pd=1.058e+07u as=1.45e+12p ps=1.058e+07u w=5e+06u l=500000u
X7 a_1393_n500# a_1293_n588# a_1235_n500# a_n1743_n722# sky130_fd_pr__nfet_g5v0d10v5 ad=1.45e+12p pd=1.058e+07u as=1.45e+12p ps=1.058e+07u w=5e+06u l=500000u
X8 a_n345_n500# a_n445_n588# a_n503_n500# a_n1743_n722# sky130_fd_pr__nfet_g5v0d10v5 ad=0p pd=0u as=1.45e+12p ps=1.058e+07u w=5e+06u l=500000u
X9 a_129_n500# a_29_n588# a_n29_n500# a_n1743_n722# sky130_fd_pr__nfet_g5v0d10v5 ad=0p pd=0u as=1.45e+12p ps=1.058e+07u w=5e+06u l=500000u
X10 a_445_n500# a_345_n588# a_287_n500# a_n1743_n722# sky130_fd_pr__nfet_g5v0d10v5 ad=1.45e+12p pd=1.058e+07u as=0p ps=0u w=5e+06u l=500000u
X11 a_n1451_n500# a_n1551_n588# a_n1609_n500# a_n1743_n722# sky130_fd_pr__nfet_g5v0d10v5 ad=0p pd=0u as=1.45e+12p ps=1.058e+07u w=5e+06u l=500000u
X12 a_1551_n500# a_1451_n588# a_1393_n500# a_n1743_n722# sky130_fd_pr__nfet_g5v0d10v5 ad=1.45e+12p pd=1.058e+07u as=0p ps=0u w=5e+06u l=500000u
X13 a_n977_n500# a_n1077_n588# a_n1135_n500# a_n1743_n722# sky130_fd_pr__nfet_g5v0d10v5 ad=0p pd=0u as=1.45e+12p ps=1.058e+07u w=5e+06u l=500000u
X14 a_n503_n500# a_n603_n588# a_n661_n500# a_n1743_n722# sky130_fd_pr__nfet_g5v0d10v5 ad=0p pd=0u as=0p ps=0u w=5e+06u l=500000u
X15 a_1077_n500# a_977_n588# a_919_n500# a_n1743_n722# sky130_fd_pr__nfet_g5v0d10v5 ad=1.45e+12p pd=1.058e+07u as=0p ps=0u w=5e+06u l=500000u
X16 a_n29_n500# a_n129_n588# a_n187_n500# a_n1743_n722# sky130_fd_pr__nfet_g5v0d10v5 ad=0p pd=0u as=0p ps=0u w=5e+06u l=500000u
X17 a_603_n500# a_503_n588# a_445_n500# a_n1743_n722# sky130_fd_pr__nfet_g5v0d10v5 ad=0p pd=0u as=0p ps=0u w=5e+06u l=500000u
X18 a_n1135_n500# a_n1235_n588# a_n1293_n500# a_n1743_n722# sky130_fd_pr__nfet_g5v0d10v5 ad=0p pd=0u as=0p ps=0u w=5e+06u l=500000u
X19 a_1235_n500# a_1135_n588# a_1077_n500# a_n1743_n722# sky130_fd_pr__nfet_g5v0d10v5 ad=0p pd=0u as=0p ps=0u w=5e+06u l=500000u
.ends

.subckt sky130_fd_pr__pfet_g5v0d10v5_CADZ46 a_n345_n500# a_n1609_n500# a_n1135_n500#
+ a_29_n597# a_n977_n500# a_n129_n597# a_187_n597# a_n503_n500# a_129_n500# a_n1293_n500#
+ a_n287_n597# a_819_n597# a_n1077_n597# a_287_n500# a_n661_n500# a_345_n597# a_n919_n597#
+ a_n1451_n500# a_977_n597# a_n445_n597# a_919_n500# a_n1235_n597# a_445_n500# a_503_n597#
+ w_n1809_n797# a_n603_n597# a_1077_n500# a_1135_n597# a_661_n597# a_n1393_n597# a_603_n500#
+ a_1293_n597# a_n761_n597# a_1235_n500# a_n1551_n597# a_761_n500# a_n29_n500# a_1451_n597#
+ a_1393_n500# a_n187_n500# a_1551_n500# a_n819_n500#
X0 a_n819_n500# a_n919_n597# a_n977_n500# w_n1809_n797# sky130_fd_pr__pfet_g5v0d10v5 ad=1.45e+12p pd=1.058e+07u as=1.45e+12p ps=1.058e+07u w=5e+06u l=500000u
X1 a_n661_n500# a_n761_n597# a_n819_n500# w_n1809_n797# sky130_fd_pr__pfet_g5v0d10v5 ad=1.45e+12p pd=1.058e+07u as=0p ps=0u w=5e+06u l=500000u
X2 a_919_n500# a_819_n597# a_761_n500# w_n1809_n797# sky130_fd_pr__pfet_g5v0d10v5 ad=1.45e+12p pd=1.058e+07u as=1.45e+12p ps=1.058e+07u w=5e+06u l=500000u
X3 a_n187_n500# a_n287_n597# a_n345_n500# w_n1809_n797# sky130_fd_pr__pfet_g5v0d10v5 ad=1.45e+12p pd=1.058e+07u as=1.45e+12p ps=1.058e+07u w=5e+06u l=500000u
X4 a_761_n500# a_661_n597# a_603_n500# w_n1809_n797# sky130_fd_pr__pfet_g5v0d10v5 ad=0p pd=0u as=1.45e+12p ps=1.058e+07u w=5e+06u l=500000u
X5 a_287_n500# a_187_n597# a_129_n500# w_n1809_n797# sky130_fd_pr__pfet_g5v0d10v5 ad=1.45e+12p pd=1.058e+07u as=1.45e+12p ps=1.058e+07u w=5e+06u l=500000u
X6 a_n1293_n500# a_n1393_n597# a_n1451_n500# w_n1809_n797# sky130_fd_pr__pfet_g5v0d10v5 ad=1.45e+12p pd=1.058e+07u as=1.45e+12p ps=1.058e+07u w=5e+06u l=500000u
X7 a_1393_n500# a_1293_n597# a_1235_n500# w_n1809_n797# sky130_fd_pr__pfet_g5v0d10v5 ad=1.45e+12p pd=1.058e+07u as=1.45e+12p ps=1.058e+07u w=5e+06u l=500000u
X8 a_n345_n500# a_n445_n597# a_n503_n500# w_n1809_n797# sky130_fd_pr__pfet_g5v0d10v5 ad=0p pd=0u as=1.45e+12p ps=1.058e+07u w=5e+06u l=500000u
X9 a_129_n500# a_29_n597# a_n29_n500# w_n1809_n797# sky130_fd_pr__pfet_g5v0d10v5 ad=0p pd=0u as=1.45e+12p ps=1.058e+07u w=5e+06u l=500000u
X10 a_445_n500# a_345_n597# a_287_n500# w_n1809_n797# sky130_fd_pr__pfet_g5v0d10v5 ad=1.45e+12p pd=1.058e+07u as=0p ps=0u w=5e+06u l=500000u
X11 a_n1451_n500# a_n1551_n597# a_n1609_n500# w_n1809_n797# sky130_fd_pr__pfet_g5v0d10v5 ad=0p pd=0u as=1.45e+12p ps=1.058e+07u w=5e+06u l=500000u
X12 a_1551_n500# a_1451_n597# a_1393_n500# w_n1809_n797# sky130_fd_pr__pfet_g5v0d10v5 ad=1.45e+12p pd=1.058e+07u as=0p ps=0u w=5e+06u l=500000u
X13 a_n977_n500# a_n1077_n597# a_n1135_n500# w_n1809_n797# sky130_fd_pr__pfet_g5v0d10v5 ad=0p pd=0u as=1.45e+12p ps=1.058e+07u w=5e+06u l=500000u
X14 a_1077_n500# a_977_n597# a_919_n500# w_n1809_n797# sky130_fd_pr__pfet_g5v0d10v5 ad=1.45e+12p pd=1.058e+07u as=0p ps=0u w=5e+06u l=500000u
X15 a_n503_n500# a_n603_n597# a_n661_n500# w_n1809_n797# sky130_fd_pr__pfet_g5v0d10v5 ad=0p pd=0u as=0p ps=0u w=5e+06u l=500000u
X16 a_n29_n500# a_n129_n597# a_n187_n500# w_n1809_n797# sky130_fd_pr__pfet_g5v0d10v5 ad=0p pd=0u as=0p ps=0u w=5e+06u l=500000u
X17 a_603_n500# a_503_n597# a_445_n500# w_n1809_n797# sky130_fd_pr__pfet_g5v0d10v5 ad=0p pd=0u as=0p ps=0u w=5e+06u l=500000u
X18 a_n1135_n500# a_n1235_n597# a_n1293_n500# w_n1809_n797# sky130_fd_pr__pfet_g5v0d10v5 ad=0p pd=0u as=0p ps=0u w=5e+06u l=500000u
X19 a_1235_n500# a_1135_n597# a_1077_n500# w_n1809_n797# sky130_fd_pr__pfet_g5v0d10v5 ad=0p pd=0u as=0p ps=0u w=5e+06u l=500000u
.ends

.subckt esd_cell esd VDD VSS
Xsky130_fd_pr__nfet_g5v0d10v5_BRTJC6_0 VSS VSS VSS VSS VSS VSS esd VSS VSS VSS esd
+ VSS esd VSS VSS VSS VSS esd VSS esd esd VSS VSS VSS VSS VSS VSS esd VSS VSS VSS
+ VSS esd VSS VSS esd VSS VSS VSS VSS VSS esd sky130_fd_pr__nfet_g5v0d10v5_BRTJC6
Xsky130_fd_pr__pfet_g5v0d10v5_CADZ46_0 VDD VDD esd VDD VDD VDD VDD esd esd VDD VDD
+ VDD VDD VDD VDD VDD VDD esd VDD VDD VDD VDD esd VDD VDD VDD esd VDD VDD VDD VDD
+ VDD VDD VDD VDD esd VDD VDD esd esd VDD esd sky130_fd_pr__pfet_g5v0d10v5_CADZ46
.ends

.subckt sky130_fd_pr__cap_mim_m3_1_CEWQ64 c1_n260_n210# m3_n360_n310#
X0 c1_n260_n210# m3_n360_n310# sky130_fd_pr__cap_mim_m3_1 l=2.1e+06u w=2.1e+06u
.ends

.subckt sky130_fd_pr__cap_mim_m3_1_CGPBWM m3_n1030_n980# c1_n930_n880#
X0 c1_n930_n880# m3_n1030_n980# sky130_fd_pr__cap_mim_m3_1 l=8.8e+06u w=8.79e+06u
.ends

.subckt pmos_tgate a_n416_n136# a_352_n136# a_n128_n136# a_n224_n136# a_64_n136# a_160_n136#
+ a_n320_n136# w_n646_n356# a_n32_n136# a_n508_n136# a_448_n136# a_n512_n234# a_256_n136#
X0 a_n224_n136# a_n512_n234# a_n320_n136# w_n646_n356# sky130_fd_pr__pfet_01v8 ad=4.488e+11p pd=3.38e+06u as=4.488e+11p ps=3.38e+06u w=1.36e+06u l=150000u
X1 a_352_n136# a_n512_n234# a_256_n136# w_n646_n356# sky130_fd_pr__pfet_01v8 ad=4.488e+11p pd=3.38e+06u as=4.488e+11p ps=3.38e+06u w=1.36e+06u l=150000u
X2 a_n128_n136# a_n512_n234# a_n224_n136# w_n646_n356# sky130_fd_pr__pfet_01v8 ad=4.488e+11p pd=3.38e+06u as=0p ps=0u w=1.36e+06u l=150000u
X3 a_256_n136# a_n512_n234# a_160_n136# w_n646_n356# sky130_fd_pr__pfet_01v8 ad=0p pd=0u as=4.488e+11p ps=3.38e+06u w=1.36e+06u l=150000u
X4 a_n416_n136# a_n512_n234# a_n508_n136# w_n646_n356# sky130_fd_pr__pfet_01v8 ad=4.488e+11p pd=3.38e+06u as=4.216e+11p ps=3.34e+06u w=1.36e+06u l=150000u
X5 a_n320_n136# a_n512_n234# a_n416_n136# w_n646_n356# sky130_fd_pr__pfet_01v8 ad=0p pd=0u as=0p ps=0u w=1.36e+06u l=150000u
X6 a_n32_n136# a_n512_n234# a_n128_n136# w_n646_n356# sky130_fd_pr__pfet_01v8 ad=4.488e+11p pd=3.38e+06u as=0p ps=0u w=1.36e+06u l=150000u
X7 a_448_n136# a_n512_n234# a_352_n136# w_n646_n356# sky130_fd_pr__pfet_01v8 ad=4.216e+11p pd=3.34e+06u as=0p ps=0u w=1.36e+06u l=150000u
X8 a_64_n136# a_n512_n234# a_n32_n136# w_n646_n356# sky130_fd_pr__pfet_01v8 ad=4.488e+11p pd=3.38e+06u as=0p ps=0u w=1.36e+06u l=150000u
X9 a_160_n136# a_n512_n234# a_64_n136# w_n646_n356# sky130_fd_pr__pfet_01v8 ad=0p pd=0u as=0p ps=0u w=1.36e+06u l=150000u
.ends

.subckt nmos_tgate a_256_n52# a_n32_n52# a_n224_n52# w_n646_n262# a_448_n52# a_n416_n52#
+ a_160_n52# a_n610_n226# a_n128_n52# a_352_n52# a_n320_n52# a_n508_n52# a_n512_n149#
+ a_64_n52#
X0 a_n32_n52# a_n512_n149# a_n128_n52# a_n610_n226# sky130_fd_pr__nfet_01v8 ad=1.716e+11p pd=1.7e+06u as=1.716e+11p ps=1.7e+06u w=520000u l=150000u
X1 a_n416_n52# a_n512_n149# a_n508_n52# a_n610_n226# sky130_fd_pr__nfet_01v8 ad=1.716e+11p pd=1.7e+06u as=1.612e+11p ps=1.66e+06u w=520000u l=150000u
X2 a_n224_n52# a_n512_n149# a_n320_n52# a_n610_n226# sky130_fd_pr__nfet_01v8 ad=1.716e+11p pd=1.7e+06u as=1.716e+11p ps=1.7e+06u w=520000u l=150000u
X3 a_n128_n52# a_n512_n149# a_n224_n52# a_n610_n226# sky130_fd_pr__nfet_01v8 ad=0p pd=0u as=0p ps=0u w=520000u l=150000u
X4 a_n320_n52# a_n512_n149# a_n416_n52# a_n610_n226# sky130_fd_pr__nfet_01v8 ad=0p pd=0u as=0p ps=0u w=520000u l=150000u
X5 a_160_n52# a_n512_n149# a_64_n52# a_n610_n226# sky130_fd_pr__nfet_01v8 ad=1.716e+11p pd=1.7e+06u as=1.716e+11p ps=1.7e+06u w=520000u l=150000u
X6 a_352_n52# a_n512_n149# a_256_n52# a_n610_n226# sky130_fd_pr__nfet_01v8 ad=1.716e+11p pd=1.7e+06u as=1.716e+11p ps=1.7e+06u w=520000u l=150000u
X7 a_256_n52# a_n512_n149# a_160_n52# a_n610_n226# sky130_fd_pr__nfet_01v8 ad=0p pd=0u as=0p ps=0u w=520000u l=150000u
X8 a_448_n52# a_n512_n149# a_352_n52# a_n610_n226# sky130_fd_pr__nfet_01v8 ad=1.612e+11p pd=1.66e+06u as=0p ps=0u w=520000u l=150000u
X9 a_64_n52# a_n512_n149# a_n32_n52# a_n610_n226# sky130_fd_pr__nfet_01v8 ad=0p pd=0u as=0p ps=0u w=520000u l=150000u
.ends

.subckt transmission_gate in out en VDD VSS nmos_tgate_0/w_n646_n262# en_b
Xpmos_tgate_0 in in out in out in out VDD in out out en_b out pmos_tgate
Xnmos_tgate_0 out in in nmos_tgate_0/w_n646_n262# out in in VSS out in out out en
+ out nmos_tgate
.ends

.subckt sky130_fd_sc_hd__decap_12 VGND VPWR VNB VPB
X0 VPWR VGND VPWR VPB sky130_fd_pr__pfet_01v8_hvt ad=4.524e+11p pd=4.52e+06u as=0p ps=0u w=870000u l=4.73e+06u
X1 VGND VPWR VGND VNB sky130_fd_pr__nfet_01v8 ad=2.86e+11p pd=3.24e+06u as=0p ps=0u w=550000u l=4.73e+06u
.ends

.subckt sky130_fd_sc_hd__clkinv_16 A VGND VPWR Y VNB VPB
X0 VGND A Y VNB sky130_fd_pr__nfet_01v8 ad=1.0605e+12p pd=1.261e+07u as=1.0059e+12p ps=1.151e+07u w=420000u l=150000u
X1 Y A VPWR VPB sky130_fd_pr__pfet_01v8_hvt ad=3.515e+12p pd=3.103e+07u as=3.655e+12p ps=3.331e+07u w=1e+06u l=150000u
X2 VPWR A Y VPB sky130_fd_pr__pfet_01v8_hvt ad=0p pd=0u as=0p ps=0u w=1e+06u l=150000u
X3 Y A VPWR VPB sky130_fd_pr__pfet_01v8_hvt ad=0p pd=0u as=0p ps=0u w=1e+06u l=150000u
X4 VGND A Y VNB sky130_fd_pr__nfet_01v8 ad=0p pd=0u as=0p ps=0u w=420000u l=150000u
X5 VPWR A Y VPB sky130_fd_pr__pfet_01v8_hvt ad=0p pd=0u as=0p ps=0u w=1e+06u l=150000u
X6 Y A VGND VNB sky130_fd_pr__nfet_01v8 ad=0p pd=0u as=0p ps=0u w=420000u l=150000u
X7 VGND A Y VNB sky130_fd_pr__nfet_01v8 ad=0p pd=0u as=0p ps=0u w=420000u l=150000u
X8 VPWR A Y VPB sky130_fd_pr__pfet_01v8_hvt ad=0p pd=0u as=0p ps=0u w=1e+06u l=150000u
X9 VPWR A Y VPB sky130_fd_pr__pfet_01v8_hvt ad=0p pd=0u as=0p ps=0u w=1e+06u l=150000u
X10 Y A VGND VNB sky130_fd_pr__nfet_01v8 ad=0p pd=0u as=0p ps=0u w=420000u l=150000u
X11 Y A VPWR VPB sky130_fd_pr__pfet_01v8_hvt ad=0p pd=0u as=0p ps=0u w=1e+06u l=150000u
X12 VPWR A Y VPB sky130_fd_pr__pfet_01v8_hvt ad=0p pd=0u as=0p ps=0u w=1e+06u l=150000u
X13 VGND A Y VNB sky130_fd_pr__nfet_01v8 ad=0p pd=0u as=0p ps=0u w=420000u l=150000u
X14 Y A VPWR VPB sky130_fd_pr__pfet_01v8_hvt ad=0p pd=0u as=0p ps=0u w=1e+06u l=150000u
X15 VPWR A Y VPB sky130_fd_pr__pfet_01v8_hvt ad=0p pd=0u as=0p ps=0u w=1e+06u l=150000u
X16 Y A VPWR VPB sky130_fd_pr__pfet_01v8_hvt ad=0p pd=0u as=0p ps=0u w=1e+06u l=150000u
X17 Y A VPWR VPB sky130_fd_pr__pfet_01v8_hvt ad=0p pd=0u as=0p ps=0u w=1e+06u l=150000u
X18 Y A VGND VNB sky130_fd_pr__nfet_01v8 ad=0p pd=0u as=0p ps=0u w=420000u l=150000u
X19 VGND A Y VNB sky130_fd_pr__nfet_01v8 ad=0p pd=0u as=0p ps=0u w=420000u l=150000u
X20 Y A VGND VNB sky130_fd_pr__nfet_01v8 ad=0p pd=0u as=0p ps=0u w=420000u l=150000u
X21 VGND A Y VNB sky130_fd_pr__nfet_01v8 ad=0p pd=0u as=0p ps=0u w=420000u l=150000u
X22 Y A VPWR VPB sky130_fd_pr__pfet_01v8_hvt ad=0p pd=0u as=0p ps=0u w=1e+06u l=150000u
X23 VPWR A Y VPB sky130_fd_pr__pfet_01v8_hvt ad=0p pd=0u as=0p ps=0u w=1e+06u l=150000u
X24 Y A VPWR VPB sky130_fd_pr__pfet_01v8_hvt ad=0p pd=0u as=0p ps=0u w=1e+06u l=150000u
X25 Y A VPWR VPB sky130_fd_pr__pfet_01v8_hvt ad=0p pd=0u as=0p ps=0u w=1e+06u l=150000u
X26 VPWR A Y VPB sky130_fd_pr__pfet_01v8_hvt ad=0p pd=0u as=0p ps=0u w=1e+06u l=150000u
X27 Y A VGND VNB sky130_fd_pr__nfet_01v8 ad=0p pd=0u as=0p ps=0u w=420000u l=150000u
X28 Y A VPWR VPB sky130_fd_pr__pfet_01v8_hvt ad=0p pd=0u as=0p ps=0u w=1e+06u l=150000u
X29 VPWR A Y VPB sky130_fd_pr__pfet_01v8_hvt ad=0p pd=0u as=0p ps=0u w=1e+06u l=150000u
X30 VPWR A Y VPB sky130_fd_pr__pfet_01v8_hvt ad=0p pd=0u as=0p ps=0u w=1e+06u l=150000u
X31 Y A VGND VNB sky130_fd_pr__nfet_01v8 ad=0p pd=0u as=0p ps=0u w=420000u l=150000u
X32 VGND A Y VNB sky130_fd_pr__nfet_01v8 ad=0p pd=0u as=0p ps=0u w=420000u l=150000u
X33 VPWR A Y VPB sky130_fd_pr__pfet_01v8_hvt ad=0p pd=0u as=0p ps=0u w=1e+06u l=150000u
X34 Y A VGND VNB sky130_fd_pr__nfet_01v8 ad=0p pd=0u as=0p ps=0u w=420000u l=150000u
X35 Y A VPWR VPB sky130_fd_pr__pfet_01v8_hvt ad=0p pd=0u as=0p ps=0u w=1e+06u l=150000u
X36 Y A VGND VNB sky130_fd_pr__nfet_01v8 ad=0p pd=0u as=0p ps=0u w=420000u l=150000u
X37 VPWR A Y VPB sky130_fd_pr__pfet_01v8_hvt ad=0p pd=0u as=0p ps=0u w=1e+06u l=150000u
X38 Y A VPWR VPB sky130_fd_pr__pfet_01v8_hvt ad=0p pd=0u as=0p ps=0u w=1e+06u l=150000u
X39 VGND A Y VNB sky130_fd_pr__nfet_01v8 ad=0p pd=0u as=0p ps=0u w=420000u l=150000u
.ends

.subckt sky130_fd_pr__pfet_01v8_lvt_YVTR7C a_n207_n140# a_n1039_n205# a_29_n205# a_327_n140#
+ a_n683_n205# a_n1275_n140# a_741_n205# a_n29_n140# a_149_n140# a_n1097_n140# a_1097_n205#
+ a_n505_n205# a_n741_n140# a_563_n205# a_861_n140# w_n1311_n241# a_919_n205# a_n327_n205#
+ a_n563_n140# a_385_n205# a_683_n140# a_n919_n140# a_n149_n205# a_1039_n140# a_n385_n140#
+ a_207_n205# a_505_n140# a_n861_n205#
X0 a_n919_n140# a_n1039_n205# a_n1097_n140# w_n1311_n241# sky130_fd_pr__pfet_01v8_lvt ad=4.06e+11p pd=3.38e+06u as=4.06e+11p ps=3.38e+06u w=1.4e+06u l=600000u
X1 a_505_n140# a_385_n205# a_327_n140# w_n1311_n241# sky130_fd_pr__pfet_01v8_lvt ad=4.06e+11p pd=3.38e+06u as=4.06e+11p ps=3.38e+06u w=1.4e+06u l=600000u
X2 a_n385_n140# a_n505_n205# a_n563_n140# w_n1311_n241# sky130_fd_pr__pfet_01v8_lvt ad=4.06e+11p pd=3.38e+06u as=4.06e+11p ps=3.38e+06u w=1.4e+06u l=600000u
X3 a_327_n140# a_207_n205# a_149_n140# w_n1311_n241# sky130_fd_pr__pfet_01v8_lvt ad=0p pd=0u as=4.06e+11p ps=3.38e+06u w=1.4e+06u l=600000u
X4 a_149_n140# a_29_n205# a_n29_n140# w_n1311_n241# sky130_fd_pr__pfet_01v8_lvt ad=0p pd=0u as=4.06e+11p ps=3.38e+06u w=1.4e+06u l=600000u
X5 a_861_n140# a_741_n205# a_683_n140# w_n1311_n241# sky130_fd_pr__pfet_01v8_lvt ad=4.06e+11p pd=3.38e+06u as=4.06e+11p ps=3.38e+06u w=1.4e+06u l=600000u
X6 a_n207_n140# a_n327_n205# a_n385_n140# w_n1311_n241# sky130_fd_pr__pfet_01v8_lvt ad=4.06e+11p pd=3.38e+06u as=0p ps=0u w=1.4e+06u l=600000u
X7 a_1097_n205# a_1097_n205# a_1039_n140# w_n1311_n241# sky130_fd_pr__pfet_01v8_lvt ad=4.06e+11p pd=3.38e+06u as=4.06e+11p ps=3.38e+06u w=1.4e+06u l=600000u
X8 a_n741_n140# a_n861_n205# a_n919_n140# w_n1311_n241# sky130_fd_pr__pfet_01v8_lvt ad=4.06e+11p pd=3.38e+06u as=0p ps=0u w=1.4e+06u l=600000u
X9 a_n1097_n140# a_n1275_n140# a_n1275_n140# w_n1311_n241# sky130_fd_pr__pfet_01v8_lvt ad=0p pd=0u as=4.06e+11p ps=3.38e+06u w=1.4e+06u l=600000u
X10 a_683_n140# a_563_n205# a_505_n140# w_n1311_n241# sky130_fd_pr__pfet_01v8_lvt ad=0p pd=0u as=0p ps=0u w=1.4e+06u l=600000u
X11 a_1039_n140# a_919_n205# a_861_n140# w_n1311_n241# sky130_fd_pr__pfet_01v8_lvt ad=0p pd=0u as=0p ps=0u w=1.4e+06u l=600000u
X12 a_n29_n140# a_n149_n205# a_n207_n140# w_n1311_n241# sky130_fd_pr__pfet_01v8_lvt ad=0p pd=0u as=0p ps=0u w=1.4e+06u l=600000u
X13 a_n563_n140# a_n683_n205# a_n741_n140# w_n1311_n241# sky130_fd_pr__pfet_01v8_lvt ad=0p pd=0u as=0p ps=0u w=1.4e+06u l=600000u
.ends

.subckt sky130_fd_pr__nfet_01v8_AKSJZW a_n149_n195# a_n207_n140# a_207_n195# a_327_n140#
+ a_n1275_n140# a_n861_n195# a_n29_n140# a_149_n140# a_n1097_n140# a_n1039_n195# a_29_n195#
+ a_n683_n195# a_n741_n140# a_741_n195# a_861_n140# a_1097_n195# a_n563_n140# a_n505_n195#
+ a_563_n195# a_683_n140# a_n919_n140# a_919_n195# a_1039_n140# a_n385_n140# a_n327_n195#
+ a_385_n195# a_505_n140# VSUBS
X0 a_n29_n140# a_n149_n195# a_n207_n140# VSUBS sky130_fd_pr__nfet_01v8 ad=4.06e+11p pd=3.38e+06u as=4.06e+11p ps=3.38e+06u w=1.4e+06u l=600000u
X1 a_n563_n140# a_n683_n195# a_n741_n140# VSUBS sky130_fd_pr__nfet_01v8 ad=4.06e+11p pd=3.38e+06u as=4.06e+11p ps=3.38e+06u w=1.4e+06u l=600000u
X2 a_n919_n140# a_n1039_n195# a_n1097_n140# VSUBS sky130_fd_pr__nfet_01v8 ad=4.06e+11p pd=3.38e+06u as=4.06e+11p ps=3.38e+06u w=1.4e+06u l=600000u
X3 a_505_n140# a_385_n195# a_327_n140# VSUBS sky130_fd_pr__nfet_01v8 ad=4.06e+11p pd=3.38e+06u as=4.06e+11p ps=3.38e+06u w=1.4e+06u l=600000u
X4 a_n385_n140# a_n505_n195# a_n563_n140# VSUBS sky130_fd_pr__nfet_01v8 ad=4.06e+11p pd=3.38e+06u as=0p ps=0u w=1.4e+06u l=600000u
X5 a_327_n140# a_207_n195# a_149_n140# VSUBS sky130_fd_pr__nfet_01v8 ad=0p pd=0u as=4.06e+11p ps=3.38e+06u w=1.4e+06u l=600000u
X6 a_149_n140# a_29_n195# a_n29_n140# VSUBS sky130_fd_pr__nfet_01v8 ad=0p pd=0u as=0p ps=0u w=1.4e+06u l=600000u
X7 a_861_n140# a_741_n195# a_683_n140# VSUBS sky130_fd_pr__nfet_01v8 ad=4.06e+11p pd=3.38e+06u as=4.06e+11p ps=3.38e+06u w=1.4e+06u l=600000u
X8 a_n207_n140# a_n327_n195# a_n385_n140# VSUBS sky130_fd_pr__nfet_01v8 ad=0p pd=0u as=0p ps=0u w=1.4e+06u l=600000u
X9 a_1097_n195# a_1097_n195# a_1039_n140# VSUBS sky130_fd_pr__nfet_01v8 ad=4.06e+11p pd=3.38e+06u as=4.06e+11p ps=3.38e+06u w=1.4e+06u l=600000u
X10 a_n741_n140# a_n861_n195# a_n919_n140# VSUBS sky130_fd_pr__nfet_01v8 ad=0p pd=0u as=0p ps=0u w=1.4e+06u l=600000u
X11 a_n1097_n140# a_n1275_n140# a_n1275_n140# VSUBS sky130_fd_pr__nfet_01v8 ad=0p pd=0u as=4.06e+11p ps=3.38e+06u w=1.4e+06u l=600000u
X12 a_683_n140# a_563_n195# a_505_n140# VSUBS sky130_fd_pr__nfet_01v8 ad=0p pd=0u as=0p ps=0u w=1.4e+06u l=600000u
X13 a_1039_n140# a_919_n195# a_861_n140# VSUBS sky130_fd_pr__nfet_01v8 ad=0p pd=0u as=0p ps=0u w=1.4e+06u l=600000u
.ends

.subckt sky130_fd_pr__nfet_01v8_lvt_K7HVMB a_664_n120# a_n608_n120# a_n86_n120# a_72_n208#
+ a_240_n120# a_n184_n120# a_n562_142# a_n510_n120# a_28_n120# a_n298_n120# a_126_n120#
+ a_452_n120# a_n396_n120# a_284_142# a_n138_142# a_550_n120# a_496_n208# a_338_n120#
+ a_n350_n208# a_n820_n120# VSUBS
X0 a_n820_n120# a_n820_n120# a_n820_n120# VSUBS sky130_fd_pr__nfet_01v8_lvt ad=6.96e+11p pd=5.96e+06u as=0p ps=0u w=1.2e+06u l=200000u
X1 a_n510_n120# a_n562_142# a_n608_n120# VSUBS sky130_fd_pr__nfet_01v8_lvt ad=3.48e+11p pd=2.98e+06u as=3.48e+11p ps=2.98e+06u w=1.2e+06u l=200000u
X2 a_664_n120# a_664_n120# a_664_n120# VSUBS sky130_fd_pr__nfet_01v8_lvt ad=6.96e+11p pd=5.96e+06u as=0p ps=0u w=1.2e+06u l=200000u
X3 a_n298_n120# a_n350_n208# a_n396_n120# VSUBS sky130_fd_pr__nfet_01v8_lvt ad=3.48e+11p pd=2.98e+06u as=3.48e+11p ps=2.98e+06u w=1.2e+06u l=200000u
X4 a_550_n120# a_496_n208# a_452_n120# VSUBS sky130_fd_pr__nfet_01v8_lvt ad=3.48e+11p pd=2.98e+06u as=3.48e+11p ps=2.98e+06u w=1.2e+06u l=200000u
X5 a_126_n120# a_72_n208# a_28_n120# VSUBS sky130_fd_pr__nfet_01v8_lvt ad=3.48e+11p pd=2.98e+06u as=3.48e+11p ps=2.98e+06u w=1.2e+06u l=200000u
X6 a_n86_n120# a_n138_142# a_n184_n120# VSUBS sky130_fd_pr__nfet_01v8_lvt ad=3.48e+11p pd=2.98e+06u as=3.48e+11p ps=2.98e+06u w=1.2e+06u l=200000u
X7 a_338_n120# a_284_142# a_240_n120# VSUBS sky130_fd_pr__nfet_01v8_lvt ad=3.48e+11p pd=2.98e+06u as=3.48e+11p ps=2.98e+06u w=1.2e+06u l=200000u
.ends

.subckt sky130_fd_pr__nfet_01v8_S6RQQZ a_n149_n194# a_n207_n140# a_207_n194# a_1453_n194#
+ a_n1217_n194# a_327_n140# a_n1275_n140# a_n861_n194# a_n29_n140# a_n1039_n194# a_149_n140#
+ a_n1097_n140# a_1275_n194# a_29_n194# a_n683_n194# a_1395_n140# a_n741_n140# a_741_n194#
+ a_861_n140# a_1097_n194# a_n505_n194# a_n563_n140# a_563_n194# a_1217_n140# a_683_n140#
+ a_n919_n140# a_919_n194# a_n1631_n140# a_n327_n194# a_1039_n140# a_n385_n140# a_385_n194#
+ a_n1395_n194# a_505_n140# a_n1453_n140# VSUBS
X0 a_n29_n140# a_n149_n194# a_n207_n140# VSUBS sky130_fd_pr__nfet_01v8 ad=4.06e+11p pd=3.38e+06u as=4.06e+11p ps=3.38e+06u w=1.4e+06u l=600000u
X1 a_n563_n140# a_n683_n194# a_n741_n140# VSUBS sky130_fd_pr__nfet_01v8 ad=4.06e+11p pd=3.38e+06u as=4.06e+11p ps=3.38e+06u w=1.4e+06u l=600000u
X2 a_n919_n140# a_n1039_n194# a_n1097_n140# VSUBS sky130_fd_pr__nfet_01v8 ad=4.06e+11p pd=3.38e+06u as=4.06e+11p ps=3.38e+06u w=1.4e+06u l=600000u
X3 a_505_n140# a_385_n194# a_327_n140# VSUBS sky130_fd_pr__nfet_01v8 ad=4.06e+11p pd=3.38e+06u as=4.06e+11p ps=3.38e+06u w=1.4e+06u l=600000u
X4 a_n385_n140# a_n505_n194# a_n563_n140# VSUBS sky130_fd_pr__nfet_01v8 ad=4.06e+11p pd=3.38e+06u as=0p ps=0u w=1.4e+06u l=600000u
X5 a_1395_n140# a_1275_n194# a_1217_n140# VSUBS sky130_fd_pr__nfet_01v8 ad=4.06e+11p pd=3.38e+06u as=4.06e+11p ps=3.38e+06u w=1.4e+06u l=600000u
X6 a_n1453_n140# a_n1631_n140# a_n1631_n140# VSUBS sky130_fd_pr__nfet_01v8 ad=4.06e+11p pd=3.38e+06u as=4.06e+11p ps=3.38e+06u w=1.4e+06u l=600000u
X7 a_327_n140# a_207_n194# a_149_n140# VSUBS sky130_fd_pr__nfet_01v8 ad=0p pd=0u as=4.06e+11p ps=3.38e+06u w=1.4e+06u l=600000u
X8 a_149_n140# a_29_n194# a_n29_n140# VSUBS sky130_fd_pr__nfet_01v8 ad=0p pd=0u as=0p ps=0u w=1.4e+06u l=600000u
X9 a_861_n140# a_741_n194# a_683_n140# VSUBS sky130_fd_pr__nfet_01v8 ad=4.06e+11p pd=3.38e+06u as=4.06e+11p ps=3.38e+06u w=1.4e+06u l=600000u
X10 a_n207_n140# a_n327_n194# a_n385_n140# VSUBS sky130_fd_pr__nfet_01v8 ad=0p pd=0u as=0p ps=0u w=1.4e+06u l=600000u
X11 a_1217_n140# a_1097_n194# a_1039_n140# VSUBS sky130_fd_pr__nfet_01v8 ad=0p pd=0u as=4.06e+11p ps=3.38e+06u w=1.4e+06u l=600000u
X12 a_n1275_n140# a_n1395_n194# a_n1453_n140# VSUBS sky130_fd_pr__nfet_01v8 ad=4.06e+11p pd=3.38e+06u as=0p ps=0u w=1.4e+06u l=600000u
X13 a_n741_n140# a_n861_n194# a_n919_n140# VSUBS sky130_fd_pr__nfet_01v8 ad=0p pd=0u as=0p ps=0u w=1.4e+06u l=600000u
X14 a_n1097_n140# a_n1217_n194# a_n1275_n140# VSUBS sky130_fd_pr__nfet_01v8 ad=0p pd=0u as=0p ps=0u w=1.4e+06u l=600000u
X15 a_683_n140# a_563_n194# a_505_n140# VSUBS sky130_fd_pr__nfet_01v8 ad=0p pd=0u as=0p ps=0u w=1.4e+06u l=600000u
X16 a_1039_n140# a_919_n194# a_861_n140# VSUBS sky130_fd_pr__nfet_01v8 ad=0p pd=0u as=0p ps=0u w=1.4e+06u l=600000u
X17 a_1453_n194# a_1453_n194# a_1395_n140# VSUBS sky130_fd_pr__nfet_01v8 ad=4.06e+11p pd=3.38e+06u as=0p ps=0u w=1.4e+06u l=600000u
.ends

.subckt sky130_fd_pr__nfet_01v8_6RUDQZ a_n594_n195# a_n1008_n140# a_n652_n140# a_652_n195#
+ a_772_n140# a_n60_n195# a_n474_n140# a_n416_n195# a_474_n195# a_594_n140# a_n296_n140#
+ a_n238_n195# a_60_n140# a_296_n195# a_416_n140# a_n118_n140# a_118_n195# a_238_n140#
+ a_n772_n195# a_n830_n140# a_830_n195# VSUBS
X0 a_772_n140# a_652_n195# a_594_n140# VSUBS sky130_fd_pr__nfet_01v8 ad=4.06e+11p pd=3.38e+06u as=4.06e+11p ps=3.38e+06u w=1.4e+06u l=600000u
X1 a_n118_n140# a_n238_n195# a_n296_n140# VSUBS sky130_fd_pr__nfet_01v8 ad=4.06e+11p pd=3.38e+06u as=4.06e+11p ps=3.38e+06u w=1.4e+06u l=600000u
X2 a_n652_n140# a_n772_n195# a_n830_n140# VSUBS sky130_fd_pr__nfet_01v8 ad=4.06e+11p pd=3.38e+06u as=4.06e+11p ps=3.38e+06u w=1.4e+06u l=600000u
X3 a_594_n140# a_474_n195# a_416_n140# VSUBS sky130_fd_pr__nfet_01v8 ad=0p pd=0u as=4.06e+11p ps=3.38e+06u w=1.4e+06u l=600000u
X4 a_60_n140# a_n60_n195# a_n118_n140# VSUBS sky130_fd_pr__nfet_01v8 ad=4.06e+11p pd=3.38e+06u as=0p ps=0u w=1.4e+06u l=600000u
X5 a_830_n195# a_830_n195# a_772_n140# VSUBS sky130_fd_pr__nfet_01v8 ad=4.06e+11p pd=3.38e+06u as=0p ps=0u w=1.4e+06u l=600000u
X6 a_n830_n140# a_n1008_n140# a_n1008_n140# VSUBS sky130_fd_pr__nfet_01v8 ad=0p pd=0u as=4.06e+11p ps=3.38e+06u w=1.4e+06u l=600000u
X7 a_n474_n140# a_n594_n195# a_n652_n140# VSUBS sky130_fd_pr__nfet_01v8 ad=4.06e+11p pd=3.38e+06u as=0p ps=0u w=1.4e+06u l=600000u
X8 a_416_n140# a_296_n195# a_238_n140# VSUBS sky130_fd_pr__nfet_01v8 ad=0p pd=0u as=4.06e+11p ps=3.38e+06u w=1.4e+06u l=600000u
X9 a_n296_n140# a_n416_n195# a_n474_n140# VSUBS sky130_fd_pr__nfet_01v8 ad=0p pd=0u as=0p ps=0u w=1.4e+06u l=600000u
X10 a_238_n140# a_118_n195# a_60_n140# VSUBS sky130_fd_pr__nfet_01v8 ad=0p pd=0u as=0p ps=0u w=1.4e+06u l=600000u
.ends

.subckt sky130_fd_pr__nfet_01v8_SD55Q9 a_352_607# a_644_607# a_174_607# a_60_607#
+ a_232_553# a_n232_n389# a_466_607# a_n524_n389# a_524_553# a_n410_n887# a_n702_n887#
+ a_n994_n887# a_644_n389# a_352_n389# a_60_n389# a_524_55# a_n60_55# a_n352_55# a_n232_n887#
+ a_n524_n887# a_174_n389# a_n352_n445# a_466_n389# a_n60_n445# a_n644_n445# a_644_n887#
+ a_352_n887# a_n118_n389# a_60_n887# a_174_n887# a_n352_n943# a_466_n887# a_n118_n887#
+ a_n60_n943# a_n644_n943# a_232_n445# a_n118_109# a_n410_109# a_758_n887# a_524_n445#
+ a_n232_109# a_n702_109# a_n644_55# a_n524_109# a_352_109# a_232_55# a_n352_553#
+ a_644_109# a_174_109# a_60_109# a_n644_553# a_n60_553# a_466_109# a_n410_607# a_524_n943#
+ a_232_n943# a_n410_n389# a_n118_607# a_n702_n389# a_n232_607# a_n702_607# a_n524_607#
+ VSUBS
X0 a_60_n389# a_n60_n445# a_n118_n389# VSUBS sky130_fd_pr__nfet_01v8 ad=4.06e+11p pd=3.38e+06u as=4.06e+11p ps=3.38e+06u w=1.4e+06u l=600000u
X1 a_644_n887# a_524_n943# a_466_n887# VSUBS sky130_fd_pr__nfet_01v8 ad=4.06e+11p pd=3.38e+06u as=4.06e+11p ps=3.38e+06u w=1.4e+06u l=600000u
X2 a_758_n887# a_758_n887# a_758_n887# VSUBS sky130_fd_pr__nfet_01v8 ad=3.248e+12p pd=2.704e+07u as=0p ps=0u w=1.4e+06u l=600000u
X3 a_758_n887# a_758_n887# a_758_n887# VSUBS sky130_fd_pr__nfet_01v8 ad=0p pd=0u as=0p ps=0u w=1.4e+06u l=600000u
X4 a_644_607# a_524_553# a_466_607# VSUBS sky130_fd_pr__nfet_01v8 ad=4.06e+11p pd=3.38e+06u as=4.06e+11p ps=3.38e+06u w=1.4e+06u l=600000u
X5 a_n994_n887# a_n994_n887# a_n994_n887# VSUBS sky130_fd_pr__nfet_01v8 ad=3.248e+12p pd=2.704e+07u as=0p ps=0u w=1.4e+06u l=600000u
X6 a_n524_607# a_n644_553# a_n702_607# VSUBS sky130_fd_pr__nfet_01v8 ad=4.06e+11p pd=3.38e+06u as=4.06e+11p ps=3.38e+06u w=1.4e+06u l=600000u
X7 a_352_n389# a_232_n445# a_174_n389# VSUBS sky130_fd_pr__nfet_01v8 ad=4.06e+11p pd=3.38e+06u as=4.06e+11p ps=3.38e+06u w=1.4e+06u l=600000u
X8 a_644_n389# a_524_n445# a_466_n389# VSUBS sky130_fd_pr__nfet_01v8 ad=4.06e+11p pd=3.38e+06u as=4.06e+11p ps=3.38e+06u w=1.4e+06u l=600000u
X9 a_n232_n887# a_n352_n943# a_n410_n887# VSUBS sky130_fd_pr__nfet_01v8 ad=4.06e+11p pd=3.38e+06u as=4.06e+11p ps=3.38e+06u w=1.4e+06u l=600000u
X10 a_758_n887# a_758_n887# a_758_n887# VSUBS sky130_fd_pr__nfet_01v8 ad=0p pd=0u as=0p ps=0u w=1.4e+06u l=600000u
X11 a_644_109# a_524_55# a_466_109# VSUBS sky130_fd_pr__nfet_01v8 ad=4.06e+11p pd=3.38e+06u as=4.06e+11p ps=3.38e+06u w=1.4e+06u l=600000u
X12 a_n524_n887# a_n644_n943# a_n702_n887# VSUBS sky130_fd_pr__nfet_01v8 ad=4.06e+11p pd=3.38e+06u as=4.06e+11p ps=3.38e+06u w=1.4e+06u l=600000u
X13 a_352_607# a_232_553# a_174_607# VSUBS sky130_fd_pr__nfet_01v8 ad=4.06e+11p pd=3.38e+06u as=4.06e+11p ps=3.38e+06u w=1.4e+06u l=600000u
X14 a_n524_109# a_n644_55# a_n702_109# VSUBS sky130_fd_pr__nfet_01v8 ad=4.06e+11p pd=3.38e+06u as=4.06e+11p ps=3.38e+06u w=1.4e+06u l=600000u
X15 a_n994_n887# a_n994_n887# a_n994_n887# VSUBS sky130_fd_pr__nfet_01v8 ad=0p pd=0u as=0p ps=0u w=1.4e+06u l=600000u
X16 a_n232_607# a_n352_553# a_n410_607# VSUBS sky130_fd_pr__nfet_01v8 ad=4.06e+11p pd=3.38e+06u as=4.06e+11p ps=3.38e+06u w=1.4e+06u l=600000u
X17 a_n232_n389# a_n352_n445# a_n410_n389# VSUBS sky130_fd_pr__nfet_01v8 ad=4.06e+11p pd=3.38e+06u as=4.06e+11p ps=3.38e+06u w=1.4e+06u l=600000u
X18 a_n524_n389# a_n644_n445# a_n702_n389# VSUBS sky130_fd_pr__nfet_01v8 ad=4.06e+11p pd=3.38e+06u as=4.06e+11p ps=3.38e+06u w=1.4e+06u l=600000u
X19 a_60_607# a_n60_553# a_n118_607# VSUBS sky130_fd_pr__nfet_01v8 ad=4.06e+11p pd=3.38e+06u as=4.06e+11p ps=3.38e+06u w=1.4e+06u l=600000u
X20 a_352_109# a_232_55# a_174_109# VSUBS sky130_fd_pr__nfet_01v8 ad=4.06e+11p pd=3.38e+06u as=4.06e+11p ps=3.38e+06u w=1.4e+06u l=600000u
X21 a_n994_n887# a_n994_n887# a_n994_n887# VSUBS sky130_fd_pr__nfet_01v8 ad=0p pd=0u as=0p ps=0u w=1.4e+06u l=600000u
X22 a_n232_109# a_n352_55# a_n410_109# VSUBS sky130_fd_pr__nfet_01v8 ad=4.06e+11p pd=3.38e+06u as=4.06e+11p ps=3.38e+06u w=1.4e+06u l=600000u
X23 a_60_n887# a_n60_n943# a_n118_n887# VSUBS sky130_fd_pr__nfet_01v8 ad=4.06e+11p pd=3.38e+06u as=4.06e+11p ps=3.38e+06u w=1.4e+06u l=600000u