* NGSPICE file created from analog_top_v2.ext - technology: sky130A

.subckt esd_cell_flat esd VDD VSS
X0 esd VSS VSS VSS sky130_fd_pr__nfet_g5v0d10v5 ad=1.45e+13p pd=1.058e+08u as=1.595e+13p ps=1.1638e+08u w=5e+06u l=500000u
X1 VDD VDD esd VDD sky130_fd_pr__pfet_g5v0d10v5 ad=1.595e+13p pd=1.1638e+08u as=1.45e+13p ps=1.058e+08u w=5e+06u l=500000u
X2 VSS VSS esd VSS sky130_fd_pr__nfet_g5v0d10v5 ad=0p pd=0u as=0p ps=0u w=5e+06u l=500000u
X3 VDD VDD esd VDD sky130_fd_pr__pfet_g5v0d10v5 ad=0p pd=0u as=0p ps=0u w=5e+06u l=500000u
X4 esd VDD VDD VDD sky130_fd_pr__pfet_g5v0d10v5 ad=0p pd=0u as=0p ps=0u w=5e+06u l=500000u
X5 VSS VSS esd VSS sky130_fd_pr__nfet_g5v0d10v5 ad=0p pd=0u as=0p ps=0u w=5e+06u l=500000u
X6 esd VSS VSS VSS sky130_fd_pr__nfet_g5v0d10v5 ad=0p pd=0u as=0p ps=0u w=5e+06u l=500000u
X7 esd VDD VDD VDD sky130_fd_pr__pfet_g5v0d10v5 ad=0p pd=0u as=0p ps=0u w=5e+06u l=500000u
X8 VSS VSS esd VSS sky130_fd_pr__nfet_g5v0d10v5 ad=0p pd=0u as=0p ps=0u w=5e+06u l=500000u
X9 VSS VSS esd VSS sky130_fd_pr__nfet_g5v0d10v5 ad=0p pd=0u as=0p ps=0u w=5e+06u l=500000u
X10 esd VSS VSS VSS sky130_fd_pr__nfet_g5v0d10v5 ad=0p pd=0u as=0p ps=0u w=5e+06u l=500000u
X11 esd VSS VSS VSS sky130_fd_pr__nfet_g5v0d10v5 ad=0p pd=0u as=0p ps=0u w=5e+06u l=500000u
X12 VSS VSS esd VSS sky130_fd_pr__nfet_g5v0d10v5 ad=0p pd=0u as=0p ps=0u w=5e+06u l=500000u
X13 esd VDD VDD VDD sky130_fd_pr__pfet_g5v0d10v5 ad=0p pd=0u as=0p ps=0u w=5e+06u l=500000u
X14 esd VSS VSS VSS sky130_fd_pr__nfet_g5v0d10v5 ad=0p pd=0u as=0p ps=0u w=5e+06u l=500000u
X15 VSS VSS esd VSS sky130_fd_pr__nfet_g5v0d10v5 ad=0p pd=0u as=0p ps=0u w=5e+06u l=500000u
X16 VSS VSS esd VSS sky130_fd_pr__nfet_g5v0d10v5 ad=0p pd=0u as=0p ps=0u w=5e+06u l=500000u
X17 esd VDD VDD VDD sky130_fd_pr__pfet_g5v0d10v5 ad=0p pd=0u as=0p ps=0u w=5e+06u l=500000u
X18 esd VSS VSS VSS sky130_fd_pr__nfet_g5v0d10v5 ad=0p pd=0u as=0p ps=0u w=5e+06u l=500000u
X19 esd VSS VSS VSS sky130_fd_pr__nfet_g5v0d10v5 ad=0p pd=0u as=0p ps=0u w=5e+06u l=500000u
X20 VDD VDD esd VDD sky130_fd_pr__pfet_g5v0d10v5 ad=0p pd=0u as=0p ps=0u w=5e+06u l=500000u
X21 esd VDD VDD VDD sky130_fd_pr__pfet_g5v0d10v5 ad=0p pd=0u as=0p ps=0u w=5e+06u l=500000u
X22 VDD VDD esd VDD sky130_fd_pr__pfet_g5v0d10v5 ad=0p pd=0u as=0p ps=0u w=5e+06u l=500000u
X23 esd VDD VDD VDD sky130_fd_pr__pfet_g5v0d10v5 ad=0p pd=0u as=0p ps=0u w=5e+06u l=500000u
X24 VDD VDD esd VDD sky130_fd_pr__pfet_g5v0d10v5 ad=0p pd=0u as=0p ps=0u w=5e+06u l=500000u
X25 VSS VSS esd VSS sky130_fd_pr__nfet_g5v0d10v5 ad=0p pd=0u as=0p ps=0u w=5e+06u l=500000u
X26 VDD VDD esd VDD sky130_fd_pr__pfet_g5v0d10v5 ad=0p pd=0u as=0p ps=0u w=5e+06u l=500000u
X27 esd VDD VDD VDD sky130_fd_pr__pfet_g5v0d10v5 ad=0p pd=0u as=0p ps=0u w=5e+06u l=500000u
X28 VDD VDD esd VDD sky130_fd_pr__pfet_g5v0d10v5 ad=0p pd=0u as=0p ps=0u w=5e+06u l=500000u
X29 esd VDD VDD VDD sky130_fd_pr__pfet_g5v0d10v5 ad=0p pd=0u as=0p ps=0u w=5e+06u l=500000u
X30 esd VSS VSS VSS sky130_fd_pr__nfet_g5v0d10v5 ad=0p pd=0u as=0p ps=0u w=5e+06u l=500000u
X31 VSS VSS esd VSS sky130_fd_pr__nfet_g5v0d10v5 ad=0p pd=0u as=0p ps=0u w=5e+06u l=500000u
X32 esd VDD VDD VDD sky130_fd_pr__pfet_g5v0d10v5 ad=0p pd=0u as=0p ps=0u w=5e+06u l=500000u
X33 esd VSS VSS VSS sky130_fd_pr__nfet_g5v0d10v5 ad=0p pd=0u as=0p ps=0u w=5e+06u l=500000u
X34 esd VDD VDD VDD sky130_fd_pr__pfet_g5v0d10v5 ad=0p pd=0u as=0p ps=0u w=5e+06u l=500000u
X35 VSS VSS esd VSS sky130_fd_pr__nfet_g5v0d10v5 ad=0p pd=0u as=0p ps=0u w=5e+06u l=500000u
X36 VDD VDD esd VDD sky130_fd_pr__pfet_g5v0d10v5 ad=0p pd=0u as=0p ps=0u w=5e+06u l=500000u
X37 esd VSS VSS VSS sky130_fd_pr__nfet_g5v0d10v5 ad=0p pd=0u as=0p ps=0u w=5e+06u l=500000u
X38 VDD VDD esd VDD sky130_fd_pr__pfet_g5v0d10v5 ad=0p pd=0u as=0p ps=0u w=5e+06u l=500000u
X39 VDD VDD esd VDD sky130_fd_pr__pfet_g5v0d10v5 ad=0p pd=0u as=0p ps=0u w=5e+06u l=500000u
C0 esd VDD 24.78fF
C1 esd VSS 25.63fF
C2 VDD VSS 19.27fF
.ends

.subckt sky130_fd_pr__cap_mim_m3_1_CEWQ64 c1_n260_n210# m3_n360_n310# VSUBS
X0 c1_n260_n210# m3_n360_n310# sky130_fd_pr__cap_mim_m3_1 l=2.1e+06u w=2.1e+06u
C0 m3_n360_n310# c1_n260_n210# 0.73fF
C1 m3_n360_n310# VSUBS 0.63fF
.ends

.subckt sky130_fd_pr__cap_mim_m3_1_CGPBWM m3_n1030_n980# c1_n930_n880# VSUBS
X0 c1_n930_n880# m3_n1030_n980# sky130_fd_pr__cap_mim_m3_1 l=8.8e+06u w=8.79e+06u
C0 c1_n930_n880# m3_n1030_n980# 8.31fF
C1 m3_n1030_n980# VSUBS 2.79fF
.ends

.subckt sky130_fd_sc_hd__decap_12 VGND VPWR VNB VPB
X0 VPWR VGND VPWR VPB sky130_fd_pr__pfet_01v8_hvt ad=4.524e+11p pd=4.52e+06u as=0p ps=0u w=870000u l=4.73e+06u
X1 VGND VPWR VGND VNB sky130_fd_pr__nfet_01v8 ad=2.86e+11p pd=3.24e+06u as=0p ps=0u w=550000u l=4.73e+06u
C0 VPB VPWR 0.47fF
C1 VPB VGND 0.87fF
C2 VPWR VGND 3.03fF
C3 VPWR VNB 1.33fF
C4 VGND VNB 0.77fF
C5 VPB VNB 1.14fF
.ends

.subckt pmos_tgate a_n416_n136# a_352_n136# a_n128_n136# a_n224_n136# a_64_n136# a_160_n136#
+ a_n320_n136# w_n646_n356# a_n32_n136# a_n508_n136# a_448_n136# a_n512_n234# a_256_n136#
+ VSUBS
X0 a_n224_n136# a_n512_n234# a_n320_n136# w_n646_n356# sky130_fd_pr__pfet_01v8 ad=4.488e+11p pd=3.38e+06u as=4.488e+11p ps=3.38e+06u w=1.36e+06u l=150000u
X1 a_352_n136# a_n512_n234# a_256_n136# w_n646_n356# sky130_fd_pr__pfet_01v8 ad=4.488e+11p pd=3.38e+06u as=4.488e+11p ps=3.38e+06u w=1.36e+06u l=150000u
X2 a_n128_n136# a_n512_n234# a_n224_n136# w_n646_n356# sky130_fd_pr__pfet_01v8 ad=4.488e+11p pd=3.38e+06u as=0p ps=0u w=1.36e+06u l=150000u
X3 a_256_n136# a_n512_n234# a_160_n136# w_n646_n356# sky130_fd_pr__pfet_01v8 ad=0p pd=0u as=4.488e+11p ps=3.38e+06u w=1.36e+06u l=150000u
X4 a_n416_n136# a_n512_n234# a_n508_n136# w_n646_n356# sky130_fd_pr__pfet_01v8 ad=4.488e+11p pd=3.38e+06u as=4.216e+11p ps=3.34e+06u w=1.36e+06u l=150000u
X5 a_n320_n136# a_n512_n234# a_n416_n136# w_n646_n356# sky130_fd_pr__pfet_01v8 ad=0p pd=0u as=0p ps=0u w=1.36e+06u l=150000u
X6 a_n32_n136# a_n512_n234# a_n128_n136# w_n646_n356# sky130_fd_pr__pfet_01v8 ad=4.488e+11p pd=3.38e+06u as=0p ps=0u w=1.36e+06u l=150000u
X7 a_448_n136# a_n512_n234# a_352_n136# w_n646_n356# sky130_fd_pr__pfet_01v8 ad=4.216e+11p pd=3.34e+06u as=0p ps=0u w=1.36e+06u l=150000u
X8 a_64_n136# a_n512_n234# a_n32_n136# w_n646_n356# sky130_fd_pr__pfet_01v8 ad=4.488e+11p pd=3.38e+06u as=0p ps=0u w=1.36e+06u l=150000u
X9 a_160_n136# a_n512_n234# a_64_n136# w_n646_n356# sky130_fd_pr__pfet_01v8 ad=0p pd=0u as=0p ps=0u w=1.36e+06u l=150000u
C0 a_352_n136# a_256_n136# 0.33fF
C1 a_n416_n136# a_256_n136# 0.03fF
C2 a_n128_n136# w_n646_n356# 0.05fF
C3 a_352_n136# a_n224_n136# 0.03fF
C4 a_n224_n136# a_n416_n136# 0.12fF
C5 a_n32_n136# a_448_n136# 0.04fF
C6 a_n128_n136# a_64_n136# 0.12fF
C7 a_352_n136# a_n32_n136# 0.05fF
C8 a_n32_n136# a_n416_n136# 0.05fF
C9 a_160_n136# a_n128_n136# 0.07fF
C10 w_n646_n356# a_64_n136# 0.05fF
C11 a_160_n136# w_n646_n356# 0.06fF
C12 a_n512_n234# a_n320_n136# 0.03fF
C13 a_n508_n136# a_n128_n136# 0.05fF
C14 a_160_n136# a_64_n136# 0.33fF
C15 a_n320_n136# a_448_n136# 0.02fF
C16 a_n128_n136# a_256_n136# 0.05fF
C17 a_n508_n136# w_n646_n356# 0.13fF
C18 a_n224_n136# a_n128_n136# 0.33fF
C19 a_352_n136# a_n320_n136# 0.03fF
C20 a_n416_n136# a_n320_n136# 0.33fF
C21 a_256_n136# w_n646_n356# 0.06fF
C22 a_n508_n136# a_64_n136# 0.03fF
C23 a_n224_n136# w_n646_n356# 0.06fF
C24 a_n512_n234# a_448_n136# 0.03fF
C25 a_n32_n136# a_n128_n136# 0.33fF
C26 a_n508_n136# a_160_n136# 0.03fF
C27 a_256_n136# a_64_n136# 0.12fF
C28 a_352_n136# a_n512_n234# 0.03fF
C29 a_160_n136# a_256_n136# 0.33fF
C30 a_n512_n234# a_n416_n136# 0.03fF
C31 a_n32_n136# w_n646_n356# 0.05fF
C32 a_n224_n136# a_64_n136# 0.07fF
C33 a_n224_n136# a_160_n136# 0.05fF
C34 a_352_n136# a_448_n136# 0.33fF
C35 a_n416_n136# a_448_n136# 0.02fF
C36 a_n32_n136# a_64_n136# 0.33fF
C37 a_n508_n136# a_256_n136# 0.02fF
C38 a_n32_n136# a_160_n136# 0.12fF
C39 a_352_n136# a_n416_n136# 0.02fF
C40 a_n508_n136# a_n224_n136# 0.07fF
C41 a_n320_n136# a_n128_n136# 0.12fF
C42 a_n224_n136# a_256_n136# 0.04fF
C43 a_n508_n136# a_n32_n136# 0.04fF
C44 a_n320_n136# w_n646_n356# 0.06fF
C45 a_n32_n136# a_256_n136# 0.07fF
C46 a_n512_n234# a_n128_n136# 0.03fF
C47 a_n224_n136# a_n32_n136# 0.12fF
C48 a_n320_n136# a_64_n136# 0.05fF
C49 a_n320_n136# a_160_n136# 0.04fF
C50 a_448_n136# a_n128_n136# 0.03fF
C51 a_n512_n234# w_n646_n356# 1.47fF
C52 a_352_n136# a_n128_n136# 0.04fF
C53 a_448_n136# w_n646_n356# 0.13fF
C54 a_n416_n136# a_n128_n136# 0.07fF
C55 a_n512_n234# a_64_n136# 0.03fF
C56 a_n508_n136# a_n320_n136# 0.12fF
C57 a_n512_n234# a_160_n136# 0.03fF
C58 a_352_n136# w_n646_n356# 0.08fF
C59 a_n416_n136# w_n646_n356# 0.08fF
C60 a_448_n136# a_64_n136# 0.05fF
C61 a_n320_n136# a_256_n136# 0.03fF
C62 a_160_n136# a_448_n136# 0.07fF
C63 a_n224_n136# a_n320_n136# 0.33fF
C64 a_352_n136# a_64_n136# 0.07fF
C65 a_n416_n136# a_64_n136# 0.04fF
C66 a_n508_n136# a_n512_n234# 0.03fF
C67 a_352_n136# a_160_n136# 0.12fF
C68 a_n416_n136# a_160_n136# 0.03fF
C69 a_n32_n136# a_n320_n136# 0.07fF
C70 a_n512_n234# a_256_n136# 0.03fF
C71 a_n508_n136# a_448_n136# 0.02fF
C72 a_n512_n234# a_n224_n136# 0.03fF
C73 a_448_n136# a_256_n136# 0.12fF
C74 a_352_n136# a_n508_n136# 0.02fF
C75 a_n508_n136# a_n416_n136# 0.33fF
C76 a_n224_n136# a_448_n136# 0.03fF
C77 a_n512_n234# a_n32_n136# 0.03fF
C78 w_n646_n356# VSUBS 2.52fF
.ends

.subckt nmos_tgate a_256_n52# a_n32_n52# a_n224_n52# w_n646_n262# a_448_n52# a_n416_n52#
+ a_160_n52# a_n610_n226# a_n128_n52# a_352_n52# a_n320_n52# a_n508_n52# a_n512_n149#
+ a_64_n52#
X0 a_n32_n52# a_n512_n149# a_n128_n52# a_n610_n226# sky130_fd_pr__nfet_01v8 ad=1.716e+11p pd=1.7e+06u as=1.716e+11p ps=1.7e+06u w=520000u l=150000u
X1 a_n416_n52# a_n512_n149# a_n508_n52# a_n610_n226# sky130_fd_pr__nfet_01v8 ad=1.716e+11p pd=1.7e+06u as=1.612e+11p ps=1.66e+06u w=520000u l=150000u
X2 a_n224_n52# a_n512_n149# a_n320_n52# a_n610_n226# sky130_fd_pr__nfet_01v8 ad=1.716e+11p pd=1.7e+06u as=1.716e+11p ps=1.7e+06u w=520000u l=150000u
X3 a_n128_n52# a_n512_n149# a_n224_n52# a_n610_n226# sky130_fd_pr__nfet_01v8 ad=0p pd=0u as=0p ps=0u w=520000u l=150000u
X4 a_n320_n52# a_n512_n149# a_n416_n52# a_n610_n226# sky130_fd_pr__nfet_01v8 ad=0p pd=0u as=0p ps=0u w=520000u l=150000u
X5 a_160_n52# a_n512_n149# a_64_n52# a_n610_n226# sky130_fd_pr__nfet_01v8 ad=1.716e+11p pd=1.7e+06u as=1.716e+11p ps=1.7e+06u w=520000u l=150000u
X6 a_352_n52# a_n512_n149# a_256_n52# a_n610_n226# sky130_fd_pr__nfet_01v8 ad=1.716e+11p pd=1.7e+06u as=1.716e+11p ps=1.7e+06u w=520000u l=150000u
X7 a_256_n52# a_n512_n149# a_160_n52# a_n610_n226# sky130_fd_pr__nfet_01v8 ad=0p pd=0u as=0p ps=0u w=520000u l=150000u
X8 a_448_n52# a_n512_n149# a_352_n52# a_n610_n226# sky130_fd_pr__nfet_01v8 ad=1.612e+11p pd=1.66e+06u as=0p ps=0u w=520000u l=150000u
X9 a_64_n52# a_n512_n149# a_n32_n52# a_n610_n226# sky130_fd_pr__nfet_01v8 ad=0p pd=0u as=0p ps=0u w=520000u l=150000u
C0 a_352_n52# a_160_n52# 0.05fF
C1 a_n416_n52# a_160_n52# 0.01fF
C2 a_n128_n52# a_n512_n149# 0.03fF
C3 a_352_n52# a_n320_n52# 0.01fF
C4 a_n320_n52# a_n416_n52# 0.13fF
C5 a_n32_n52# a_448_n52# 0.02fF
C6 a_n128_n52# a_64_n52# 0.05fF
C7 a_352_n52# a_n32_n52# 0.02fF
C8 a_n32_n52# a_n416_n52# 0.02fF
C9 a_256_n52# a_n128_n52# 0.02fF
C10 a_n512_n149# a_64_n52# 0.03fF
C11 a_256_n52# a_n512_n149# 0.03fF
C12 a_n508_n52# a_n224_n52# 0.03fF
C13 a_256_n52# a_64_n52# 0.05fF
C14 a_n224_n52# a_448_n52# 0.01fF
C15 a_n128_n52# a_160_n52# 0.03fF
C16 a_n320_n52# a_n128_n52# 0.05fF
C17 a_352_n52# a_n224_n52# 0.01fF
C18 a_n416_n52# a_n224_n52# 0.05fF
C19 a_160_n52# a_n512_n149# 0.03fF
C20 a_n320_n52# a_n512_n149# 0.03fF
C21 a_n508_n52# a_448_n52# 0.01fF
C22 a_n32_n52# a_n128_n52# 0.13fF
C23 a_160_n52# a_64_n52# 0.13fF
C24 a_352_n52# a_n508_n52# 0.01fF
C25 a_256_n52# a_160_n52# 0.13fF
C26 a_n32_n52# a_n512_n149# 0.03fF
C27 a_n508_n52# a_n416_n52# 0.13fF
C28 a_n320_n52# a_64_n52# 0.02fF
C29 a_n320_n52# a_256_n52# 0.01fF
C30 a_352_n52# a_448_n52# 0.13fF
C31 a_n416_n52# a_448_n52# 0.01fF
C32 a_n32_n52# a_64_n52# 0.13fF
C33 a_n32_n52# a_256_n52# 0.03fF
C34 a_352_n52# a_n416_n52# 0.01fF
C35 a_n224_n52# a_n128_n52# 0.13fF
C36 a_n320_n52# a_160_n52# 0.02fF
C37 a_n224_n52# a_n512_n149# 0.03fF
C38 a_n32_n52# a_160_n52# 0.05fF
C39 a_n508_n52# a_n128_n52# 0.02fF
C40 a_n320_n52# a_n32_n52# 0.03fF
C41 a_n224_n52# a_64_n52# 0.03fF
C42 a_n224_n52# a_256_n52# 0.02fF
C43 a_448_n52# a_n128_n52# 0.01fF
C44 a_n508_n52# a_n512_n149# 0.03fF
C45 a_352_n52# a_n128_n52# 0.02fF
C46 a_448_n52# a_n512_n149# 0.03fF
C47 a_n416_n52# a_n128_n52# 0.03fF
C48 a_n508_n52# a_64_n52# 0.01fF
C49 a_n508_n52# a_256_n52# 0.01fF
C50 a_352_n52# a_n512_n149# 0.03fF
C51 a_n416_n52# a_n512_n149# 0.03fF
C52 a_448_n52# a_64_n52# 0.02fF
C53 a_n224_n52# a_160_n52# 0.02fF
C54 a_256_n52# a_448_n52# 0.05fF
C55 a_n320_n52# a_n224_n52# 0.13fF
C56 a_352_n52# a_64_n52# 0.03fF
C57 a_n416_n52# a_64_n52# 0.02fF
C58 a_352_n52# a_256_n52# 0.13fF
C59 a_n416_n52# a_256_n52# 0.01fF
C60 a_n32_n52# a_n224_n52# 0.05fF
C61 a_n508_n52# a_160_n52# 0.01fF
C62 a_n508_n52# a_n320_n52# 0.05fF
C63 a_448_n52# a_160_n52# 0.03fF
C64 a_n320_n52# a_448_n52# 0.01fF
C65 a_n508_n52# a_n32_n52# 0.02fF
C66 a_448_n52# a_n610_n226# 0.07fF
C67 a_352_n52# a_n610_n226# 0.05fF
C68 a_256_n52# a_n610_n226# 0.04fF
C69 a_160_n52# a_n610_n226# 0.04fF
C70 a_64_n52# a_n610_n226# 0.04fF
C71 a_n32_n52# a_n610_n226# 0.04fF
C72 a_n128_n52# a_n610_n226# 0.04fF
C73 a_n224_n52# a_n610_n226# 0.04fF
C74 a_n320_n52# a_n610_n226# 0.04fF
C75 a_n416_n52# a_n610_n226# 0.05fF
C76 a_n508_n52# a_n610_n226# 0.07fF
C77 a_n512_n149# a_n610_n226# 1.83fF
.ends

.subckt transmission_gate en VDD nmos_tgate_0/w_n646_n262# in out en_b VSS
Xpmos_tgate_0 in in out in out in out VDD in out out en_b out VSS pmos_tgate
Xnmos_tgate_0 out in in nmos_tgate_0/w_n646_n262# out in in VSS out in out out en
+ out nmos_tgate
C0 en_b en 0.07fF
C1 en_b VDD -0.11fF
C2 in out 0.77fF
C3 en out 0.01fF
C4 in en 0.13fF
C5 out VDD 0.29fF
C6 in VDD 0.70fF
C7 en_b out 0.01fF
C8 en VDD 0.12fF
C9 in en_b 0.15fF
C10 en VSS 1.70fF
C11 out VSS 0.57fF
C12 in VSS 1.13fF
C13 en_b VSS 0.09fF
C14 VDD VSS 3.16fF
.ends

.subckt sky130_fd_sc_hd__clkinv_16 A VGND VPWR Y VNB VPB
X0 VGND A Y VNB sky130_fd_pr__nfet_01v8 ad=1.0605e+12p pd=1.261e+07u as=1.0059e+12p ps=1.151e+07u w=420000u l=150000u
X1 Y A VPWR VPB sky130_fd_pr__pfet_01v8_hvt ad=3.515e+12p pd=3.103e+07u as=3.655e+12p ps=3.331e+07u w=1e+06u l=150000u
X2 VPWR A Y VPB sky130_fd_pr__pfet_01v8_hvt ad=0p pd=0u as=0p ps=0u w=1e+06u l=150000u
X3 Y A VPWR VPB sky130_fd_pr__pfet_01v8_hvt ad=0p pd=0u as=0p ps=0u w=1e+06u l=150000u
X4 VGND A Y VNB sky130_fd_pr__nfet_01v8 ad=0p pd=0u as=0p ps=0u w=420000u l=150000u
X5 VPWR A Y VPB sky130_fd_pr__pfet_01v8_hvt ad=0p pd=0u as=0p ps=0u w=1e+06u l=150000u
X6 Y A VGND VNB sky130_fd_pr__nfet_01v8 ad=0p pd=0u as=0p ps=0u w=420000u l=150000u
X7 VGND A Y VNB sky130_fd_pr__nfet_01v8 ad=0p pd=0u as=0p ps=0u w=420000u l=150000u
X8 VPWR A Y VPB sky130_fd_pr__pfet_01v8_hvt ad=0p pd=0u as=0p ps=0u w=1e+06u l=150000u
X9 VPWR A Y VPB sky130_fd_pr__pfet_01v8_hvt ad=0p pd=0u as=0p ps=0u w=1e+06u l=150000u
X10 Y A VGND VNB sky130_fd_pr__nfet_01v8 ad=0p pd=0u as=0p ps=0u w=420000u l=150000u
X11 Y A VPWR VPB sky130_fd_pr__pfet_01v8_hvt ad=0p pd=0u as=0p ps=0u w=1e+06u l=150000u
X12 VPWR A Y VPB sky130_fd_pr__pfet_01v8_hvt ad=0p pd=0u as=0p ps=0u w=1e+06u l=150000u
X13 VGND A Y VNB sky130_fd_pr__nfet_01v8 ad=0p pd=0u as=0p ps=0u w=420000u l=150000u
X14 Y A VPWR VPB sky130_fd_pr__pfet_01v8_hvt ad=0p pd=0u as=0p ps=0u w=1e+06u l=150000u
X15 VPWR A Y VPB sky130_fd_pr__pfet_01v8_hvt ad=0p pd=0u as=0p ps=0u w=1e+06u l=150000u
X16 Y A VPWR VPB sky130_fd_pr__pfet_01v8_hvt ad=0p pd=0u as=0p ps=0u w=1e+06u l=150000u
X17 Y A VPWR VPB sky130_fd_pr__pfet_01v8_hvt ad=0p pd=0u as=0p ps=0u w=1e+06u l=150000u
X18 Y A VGND VNB sky130_fd_pr__nfet_01v8 ad=0p pd=0u as=0p ps=0u w=420000u l=150000u
X19 VGND A Y VNB sky130_fd_pr__nfet_01v8 ad=0p pd=0u as=0p ps=0u w=420000u l=150000u
X20 Y A VGND VNB sky130_fd_pr__nfet_01v8 ad=0p pd=0u as=0p ps=0u w=420000u l=150000u
X21 VGND A Y VNB sky130_fd_pr__nfet_01v8 ad=0p pd=0u as=0p ps=0u w=420000u l=150000u
X22 Y A VPWR VPB sky130_fd_pr__pfet_01v8_hvt ad=0p pd=0u as=0p ps=0u w=1e+06u l=150000u
X23 VPWR A Y VPB sky130_fd_pr__pfet_01v8_hvt ad=0p pd=0u as=0p ps=0u w=1e+06u l=150000u
X24 Y A VPWR VPB sky130_fd_pr__pfet_01v8_hvt ad=0p pd=0u as=0p ps=0u w=1e+06u l=150000u
X25 Y A VPWR VPB sky130_fd_pr__pfet_01v8_hvt ad=0p pd=0u as=0p ps=0u w=1e+06u l=150000u
X26 VPWR A Y VPB sky130_fd_pr__pfet_01v8_hvt ad=0p pd=0u as=0p ps=0u w=1e+06u l=150000u
X27 Y A VGND VNB sky130_fd_pr__nfet_01v8 ad=0p pd=0u as=0p ps=0u w=420000u l=150000u
X28 Y A VPWR VPB sky130_fd_pr__pfet_01v8_hvt ad=0p pd=0u as=0p ps=0u w=1e+06u l=150000u
X29 VPWR A Y VPB sky130_fd_pr__pfet_01v8_hvt ad=0p pd=0u as=0p ps=0u w=1e+06u l=150000u
X30 VPWR A Y VPB sky130_fd_pr__pfet_01v8_hvt ad=0p pd=0u as=0p ps=0u w=1e+06u l=150000u
X31 Y A VGND VNB sky130_fd_pr__nfet_01v8 ad=0p pd=0u as=0p ps=0u w=420000u l=150000u
X32 VGND A Y VNB sky130_fd_pr__nfet_01v8 ad=0p pd=0u as=0p ps=0u w=420000u l=150000u
X33 VPWR A Y VPB sky130_fd_pr__pfet_01v8_hvt ad=0p pd=0u as=0p ps=0u w=1e+06u l=150000u
X34 Y A VGND VNB sky130_fd_pr__nfet_01v8 ad=0p pd=0u as=0p ps=0u w=420000u l=150000u
X35 Y A VPWR VPB sky130_fd_pr__pfet_01v8_hvt ad=0p pd=0u as=0p ps=0u w=1e+06u l=150000u
X36 Y A VGND VNB sky130_fd_pr__nfet_01v8 ad=0p pd=0u as=0p ps=0u w=420000u l=150000u
X37 VPWR A Y VPB sky130_fd_pr__pfet_01v8_hvt ad=0p pd=0u as=0p ps=0u w=1e+06u l=150000u
X38 Y A VPWR VPB sky130_fd_pr__pfet_01v8_hvt ad=0p pd=0u as=0p ps=0u w=1e+06u l=150000u
X39 VGND A Y VNB sky130_fd_pr__nfet_01v8 ad=0p pd=0u as=0p ps=0u w=420000u l=150000u
C0 VPB A 1.26fF
C1 VPWR A 0.64fF
C2 A Y 1.32fF
C3 VPB VPWR 0.89fF
C4 VGND A 0.66fF
C5 VPB Y 0.09fF
C6 VPWR Y 4.41fF
C7 VPWR VGND 0.34fF
C8 VGND Y 1.58fF
C9 VGND VNB 1.26fF
C10 Y VNB 0.13fF
C11 VPWR VNB 0.47fF
C12 A VNB 1.70fF
C13 VPB VNB 2.20fF
.ends

.subckt sky130_fd_pr__pfet_01v8_lvt_YVTR7C a_n207_n140# a_n1039_n205# a_29_n205# a_327_n140#
+ a_n683_n205# a_n1275_n140# a_741_n205# a_n29_n140# a_149_n140# a_n1097_n140# a_1097_n205#
+ a_n505_n205# a_n741_n140# a_563_n205# a_861_n140# w_n1311_n241# a_919_n205# a_n327_n205#
+ a_n563_n140# a_385_n205# a_683_n140# a_n919_n140# a_n149_n205# a_1039_n140# a_n385_n140#
+ a_207_n205# a_505_n140# a_n861_n205# VSUBS
X0 a_n919_n140# a_n1039_n205# a_n1097_n140# w_n1311_n241# sky130_fd_pr__pfet_01v8_lvt ad=4.06e+11p pd=3.38e+06u as=4.06e+11p ps=3.38e+06u w=1.4e+06u l=600000u
X1 a_505_n140# a_385_n205# a_327_n140# w_n1311_n241# sky130_fd_pr__pfet_01v8_lvt ad=4.06e+11p pd=3.38e+06u as=4.06e+11p ps=3.38e+06u w=1.4e+06u l=600000u
X2 a_n385_n140# a_n505_n205# a_n563_n140# w_n1311_n241# sky130_fd_pr__pfet_01v8_lvt ad=4.06e+11p pd=3.38e+06u as=4.06e+11p ps=3.38e+06u w=1.4e+06u l=600000u
X3 a_327_n140# a_207_n205# a_149_n140# w_n1311_n241# sky130_fd_pr__pfet_01v8_lvt ad=0p pd=0u as=4.06e+11p ps=3.38e+06u w=1.4e+06u l=600000u
X4 a_149_n140# a_29_n205# a_n29_n140# w_n1311_n241# sky130_fd_pr__pfet_01v8_lvt ad=0p pd=0u as=4.06e+11p ps=3.38e+06u w=1.4e+06u l=600000u
X5 a_861_n140# a_741_n205# a_683_n140# w_n1311_n241# sky130_fd_pr__pfet_01v8_lvt ad=4.06e+11p pd=3.38e+06u as=4.06e+11p ps=3.38e+06u w=1.4e+06u l=600000u
X6 a_n207_n140# a_n327_n205# a_n385_n140# w_n1311_n241# sky130_fd_pr__pfet_01v8_lvt ad=4.06e+11p pd=3.38e+06u as=0p ps=0u w=1.4e+06u l=600000u
X7 a_1097_n205# a_1097_n205# a_1039_n140# w_n1311_n241# sky130_fd_pr__pfet_01v8_lvt ad=4.06e+11p pd=3.38e+06u as=4.06e+11p ps=3.38e+06u w=1.4e+06u l=600000u
X8 a_n741_n140# a_n861_n205# a_n919_n140# w_n1311_n241# sky130_fd_pr__pfet_01v8_lvt ad=4.06e+11p pd=3.38e+06u as=0p ps=0u w=1.4e+06u l=600000u
X9 a_n1097_n140# a_n1275_n140# a_n1275_n140# w_n1311_n241# sky130_fd_pr__pfet_01v8_lvt ad=0p pd=0u as=4.06e+11p ps=3.38e+06u w=1.4e+06u l=600000u
X10 a_683_n140# a_563_n205# a_505_n140# w_n1311_n241# sky130_fd_pr__pfet_01v8_lvt ad=0p pd=0u as=0p ps=0u w=1.4e+06u l=600000u
X11 a_1039_n140# a_919_n205# a_861_n140# w_n1311_n241# sky130_fd_pr__pfet_01v8_lvt ad=0p pd=0u as=0p ps=0u w=1.4e+06u l=600000u
X12 a_n29_n140# a_n149_n205# a_n207_n140# w_n1311_n241# sky130_fd_pr__pfet_01v8_lvt ad=0p pd=0u as=0p ps=0u w=1.4e+06u l=600000u
X13 a_n563_n140# a_n683_n205# a_n741_n140# w_n1311_n241# sky130_fd_pr__pfet_01v8_lvt ad=0p pd=0u as=0p ps=0u w=1.4e+06u l=600000u
C0 a_n207_n140# a_327_n140# 0.02fF
C1 a_1039_n140# a_683_n140# 0.03fF
C2 a_n919_n140# a_683_n140# 0.01fF
C3 a_919_n205# a_741_n205# 0.10fF
C4 a_1097_n205# a_861_n140# 0.03fF
C5 a_n505_n205# a_n149_n205# 0.03fF
C6 a_1097_n205# a_n149_n205# 0.00fF
C7 a_29_n205# a_741_n205# 0.01fF
C8 a_n207_n140# a_505_n140# 0.01fF
C9 w_n1311_n241# a_327_n140# 0.02fF
C10 a_n741_n140# a_n919_n140# 0.06fF
C11 a_149_n140# a_861_n140# 0.01fF
C12 a_n683_n205# a_n861_n205# 0.10fF
C13 a_n1275_n140# a_385_n205# 0.00fF
C14 w_n1311_n241# a_505_n140# 0.02fF
C15 a_1039_n140# a_1097_n205# 0.06fF
C16 a_n29_n140# a_683_n140# 0.01fF
C17 a_n741_n140# a_n1275_n140# 0.02fF
C18 a_n1039_n205# a_n861_n205# 0.10fF
C19 a_n385_n140# a_327_n140# 0.01fF
C20 a_1039_n140# a_149_n140# 0.01fF
C21 a_n505_n205# a_n1275_n140# 0.01fF
C22 a_n683_n205# a_919_n205# 0.01fF
C23 a_n29_n140# a_n741_n140# 0.01fF
C24 a_n861_n205# a_n327_n205# 0.02fF
C25 a_149_n140# a_n919_n140# 0.01fF
C26 a_n683_n205# a_29_n205# 0.01fF
C27 a_n563_n140# a_n1097_n140# 0.02fF
C28 a_505_n140# a_n385_n140# 0.01fF
C29 w_n1311_n241# a_207_n205# 0.18fF
C30 a_149_n140# a_n1275_n140# 0.01fF
C31 a_n29_n140# a_1097_n205# 0.01fF
C32 a_919_n205# a_n327_n205# 0.01fF
C33 a_n683_n205# a_741_n205# 0.01fF
C34 a_n1039_n205# a_29_n205# 0.01fF
C35 a_n861_n205# a_n149_n205# 0.01fF
C36 a_29_n205# a_n327_n205# 0.03fF
C37 a_563_n205# w_n1311_n241# 0.16fF
C38 a_n29_n140# a_149_n140# 0.06fF
C39 a_n207_n140# a_683_n140# 0.01fF
C40 a_n327_n205# a_741_n205# 0.01fF
C41 a_919_n205# a_n149_n205# 0.01fF
C42 a_n207_n140# a_n741_n140# 0.02fF
C43 w_n1311_n241# a_683_n140# 0.02fF
C44 a_n149_n205# a_29_n205# 0.10fF
C45 w_n1311_n241# a_385_n205# 0.17fF
C46 a_n149_n205# a_741_n205# 0.01fF
C47 a_n207_n140# a_1097_n205# 0.01fF
C48 w_n1311_n241# a_n741_n140# 0.02fF
C49 a_n861_n205# a_n1275_n140# 0.02fF
C50 a_505_n140# a_327_n140# 0.06fF
C51 a_n563_n140# a_861_n140# 0.01fF
C52 a_n385_n140# a_683_n140# 0.01fF
C53 a_n207_n140# a_149_n140# 0.03fF
C54 a_n683_n205# a_n1039_n205# 0.03fF
C55 w_n1311_n241# a_n505_n205# 0.20fF
C56 w_n1311_n241# a_1097_n205# 0.28fF
C57 a_n683_n205# a_n327_n205# 0.03fF
C58 a_n741_n140# a_n385_n140# 0.03fF
C59 a_29_n205# a_n1275_n140# 0.00fF
C60 w_n1311_n241# a_149_n140# 0.02fF
C61 a_n1039_n205# a_n327_n205# 0.01fF
C62 a_1039_n140# a_n563_n140# 0.01fF
C63 a_n919_n140# a_n563_n140# 0.03fF
C64 a_1097_n205# a_n385_n140# 0.01fF
C65 a_n683_n205# a_n149_n205# 0.02fF
C66 a_n919_n140# a_n1097_n140# 0.06fF
C67 a_n563_n140# a_n1275_n140# 0.01fF
C68 a_n1039_n205# a_n149_n205# 0.01fF
C69 a_149_n140# a_n385_n140# 0.02fF
C70 a_n149_n205# a_n327_n205# 0.10fF
C71 a_n1097_n140# a_n1275_n140# 0.06fF
C72 a_n29_n140# a_n563_n140# 0.02fF
C73 a_683_n140# a_327_n140# 0.03fF
C74 a_n29_n140# a_n1097_n140# 0.01fF
C75 w_n1311_n241# a_n861_n205# 0.20fF
C76 a_505_n140# a_683_n140# 0.06fF
C77 a_n683_n205# a_n1275_n140# 0.01fF
C78 a_n741_n140# a_327_n140# 0.01fF
C79 a_563_n205# a_207_n205# 0.03fF
C80 a_n1039_n205# a_n1275_n140# 0.07fF
C81 a_n741_n140# a_505_n140# 0.01fF
C82 a_919_n205# w_n1311_n241# 0.14fF
C83 a_1097_n205# a_327_n140# 0.01fF
C84 a_n1275_n140# a_n327_n205# 0.01fF
C85 w_n1311_n241# a_29_n205# 0.19fF
C86 a_1039_n140# a_861_n140# 0.06fF
C87 a_n207_n140# a_n563_n140# 0.03fF
C88 a_1097_n205# a_505_n140# 0.01fF
C89 a_149_n140# a_327_n140# 0.06fF
C90 w_n1311_n241# a_741_n205# 0.15fF
C91 a_n207_n140# a_n1097_n140# 0.01fF
C92 a_n149_n205# a_n1275_n140# 0.01fF
C93 a_207_n205# a_385_n205# 0.10fF
C94 a_149_n140# a_505_n140# 0.03fF
C95 w_n1311_n241# a_n563_n140# 0.02fF
C96 a_n29_n140# a_861_n140# 0.01fF
C97 a_563_n205# a_385_n205# 0.10fF
C98 w_n1311_n241# a_n1097_n140# 0.02fF
C99 a_n505_n205# a_207_n205# 0.01fF
C100 a_207_n205# a_1097_n205# 0.01fF
C101 a_n919_n140# a_n1275_n140# 0.03fF
C102 a_n563_n140# a_n385_n140# 0.06fF
C103 a_563_n205# a_n505_n205# 0.01fF
C104 a_563_n205# a_1097_n205# 0.01fF
C105 a_n683_n205# w_n1311_n241# 0.20fF
C106 a_n741_n140# a_683_n140# 0.01fF
C107 a_n1097_n140# a_n385_n140# 0.01fF
C108 a_1039_n140# a_n29_n140# 0.01fF
C109 a_n29_n140# a_n919_n140# 0.01fF
C110 a_n1039_n205# w_n1311_n241# 0.20fF
C111 a_1097_n205# a_683_n140# 0.02fF
C112 w_n1311_n241# a_n327_n205# 0.20fF
C113 a_n29_n140# a_n1275_n140# 0.01fF
C114 a_n207_n140# a_861_n140# 0.01fF
C115 a_n505_n205# a_385_n205# 0.01fF
C116 a_1097_n205# a_385_n205# 0.01fF
C117 a_149_n140# a_683_n140# 0.02fF
C118 w_n1311_n241# a_861_n140# 0.01fF
C119 w_n1311_n241# a_n149_n205# 0.19fF
C120 a_n741_n140# a_149_n140# 0.01fF
C121 a_207_n205# a_n861_n205# 0.01fF
C122 a_n505_n205# a_1097_n205# 0.00fF
C123 a_1039_n140# a_n207_n140# 0.01fF
C124 a_n563_n140# a_327_n140# 0.01fF
C125 a_n207_n140# a_n919_n140# 0.01fF
C126 a_563_n205# a_n861_n205# 0.01fF
C127 a_n1097_n140# a_327_n140# 0.01fF
C128 a_1097_n205# a_149_n140# 0.01fF
C129 a_n563_n140# a_505_n140# 0.01fF
C130 a_n207_n140# a_n1275_n140# 0.01fF
C131 a_861_n140# a_n385_n140# 0.01fF
C132 a_919_n205# a_207_n205# 0.01fF
C133 a_1039_n140# w_n1311_n241# 0.01fF
C134 w_n1311_n241# a_n919_n140# 0.02fF
C135 a_207_n205# a_29_n205# 0.10fF
C136 a_505_n140# a_n1097_n140# 0.01fF
C137 a_563_n205# a_919_n205# 0.03fF
C138 a_n29_n140# a_n207_n140# 0.06fF
C139 w_n1311_n241# a_n1275_n140# 0.33fF
C140 a_563_n205# a_29_n205# 0.02fF
C141 a_207_n205# a_741_n205# 0.02fF
C142 a_1039_n140# a_n385_n140# 0.01fF
C143 a_n861_n205# a_385_n205# 0.01fF
C144 a_n919_n140# a_n385_n140# 0.02fF
C145 a_563_n205# a_741_n205# 0.10fF
C146 w_n1311_n241# a_n29_n140# 0.02fF
C147 a_n385_n140# a_n1275_n140# 0.01fF
C148 a_n505_n205# a_n861_n205# 0.03fF
C149 a_919_n205# a_385_n205# 0.02fF
C150 a_29_n205# a_385_n205# 0.03fF
C151 a_n29_n140# a_n385_n140# 0.03fF
C152 a_861_n140# a_327_n140# 0.02fF
C153 a_919_n205# a_n505_n205# 0.01fF
C154 a_n683_n205# a_207_n205# 0.01fF
C155 a_n563_n140# a_683_n140# 0.01fF
C156 a_919_n205# a_1097_n205# 0.07fF
C157 a_741_n205# a_385_n205# 0.03fF
C158 a_n505_n205# a_29_n205# 0.02fF
C159 a_1097_n205# a_29_n205# 0.01fF
C160 a_505_n140# a_861_n140# 0.03fF
C161 a_563_n205# a_n683_n205# 0.01fF
C162 a_n1039_n205# a_207_n205# 0.01fF
C163 w_n1311_n241# a_n207_n140# 0.02fF
C164 a_n741_n140# a_n563_n140# 0.06fF
C165 a_n505_n205# a_741_n205# 0.01fF
C166 a_207_n205# a_n327_n205# 0.02fF
C167 a_1097_n205# a_741_n205# 0.02fF
C168 a_1039_n140# a_327_n140# 0.01fF
C169 a_n919_n140# a_327_n140# 0.01fF
C170 a_563_n205# a_n1039_n205# 0.01fF
C171 a_n741_n140# a_n1097_n140# 0.03fF
C172 a_563_n205# a_n327_n205# 0.01fF
C173 a_1039_n140# a_505_n140# 0.02fF
C174 a_327_n140# a_n1275_n140# 0.01fF
C175 a_n919_n140# a_505_n140# 0.01fF
C176 a_n207_n140# a_n385_n140# 0.06fF
C177 a_207_n205# a_n149_n205# 0.03fF
C178 a_n683_n205# a_385_n205# 0.01fF
C179 a_149_n140# a_n563_n140# 0.01fF
C180 a_n29_n140# a_327_n140# 0.03fF
C181 a_563_n205# a_n149_n205# 0.01fF
C182 a_149_n140# a_n1097_n140# 0.01fF
C183 w_n1311_n241# a_n385_n140# 0.02fF
C184 a_n1039_n205# a_385_n205# 0.01fF
C185 a_n683_n205# a_n505_n205# 0.10fF
C186 a_n327_n205# a_385_n205# 0.01fF
C187 a_n29_n140# a_505_n140# 0.02fF
C188 a_n861_n205# a_29_n205# 0.01fF
C189 a_861_n140# a_683_n140# 0.06fF
C190 a_n1039_n205# a_n505_n205# 0.02fF
C191 a_207_n205# a_n1275_n140# 0.00fF
C192 a_n505_n205# a_n327_n205# 0.10fF
C193 a_n861_n205# a_741_n205# 0.01fF
C194 a_1097_n205# a_n327_n205# 0.00fF
C195 a_n149_n205# a_385_n205# 0.02fF
C196 a_n741_n140# a_861_n140# 0.01fF
C197 a_919_n205# a_29_n205# 0.01fF
C198 w_n1311_n241# VSUBS 3.79fF
.ends

.subckt sky130_fd_pr__nfet_01v8_AKSJZW a_n149_n195# a_n207_n140# a_207_n195# a_327_n140#
+ a_n1275_n140# a_n861_n195# a_n29_n140# a_149_n140# a_n1097_n140# a_n1039_n195# a_29_n195#
+ a_n683_n195# a_n741_n140# a_741_n195# a_861_n140# a_1097_n195# a_n563_n140# a_n505_n195#
+ a_563_n195# a_683_n140# a_n919_n140# a_919_n195# a_1039_n140# a_n385_n140# a_n327_n195#
+ a_385_n195# a_505_n140# VSUBS
X0 a_n29_n140# a_n149_n195# a_n207_n140# VSUBS sky130_fd_pr__nfet_01v8 ad=4.06e+11p pd=3.38e+06u as=4.06e+11p ps=3.38e+06u w=1.4e+06u l=600000u
X1 a_n563_n140# a_n683_n195# a_n741_n140# VSUBS sky130_fd_pr__nfet_01v8 ad=4.06e+11p pd=3.38e+06u as=4.06e+11p ps=3.38e+06u w=1.4e+06u l=600000u
X2 a_n919_n140# a_n1039_n195# a_n1097_n140# VSUBS sky130_fd_pr__nfet_01v8 ad=4.06e+11p pd=3.38e+06u as=4.06e+11p ps=3.38e+06u w=1.4e+06u l=600000u
X3 a_505_n140# a_385_n195# a_327_n140# VSUBS sky130_fd_pr__nfet_01v8 ad=4.06e+11p pd=3.38e+06u as=4.06e+11p ps=3.38e+06u w=1.4e+06u l=600000u
X4 a_n385_n140# a_n505_n195# a_n563_n140# VSUBS sky130_fd_pr__nfet_01v8 ad=4.06e+11p pd=3.38e+06u as=0p ps=0u w=1.4e+06u l=600000u
X5 a_327_n140# a_207_n195# a_149_n140# VSUBS sky130_fd_pr__nfet_01v8 ad=0p pd=0u as=4.06e+11p ps=3.38e+06u w=1.4e+06u l=600000u
X6 a_149_n140# a_29_n195# a_n29_n140# VSUBS sky130_fd_pr__nfet_01v8 ad=0p pd=0u as=0p ps=0u w=1.4e+06u l=600000u
X7 a_861_n140# a_741_n195# a_683_n140# VSUBS sky130_fd_pr__nfet_01v8 ad=4.06e+11p pd=3.38e+06u as=4.06e+11p ps=3.38e+06u w=1.4e+06u l=600000u
X8 a_n207_n140# a_n327_n195# a_n385_n140# VSUBS sky130_fd_pr__nfet_01v8 ad=0p pd=0u as=0p ps=0u w=1.4e+06u l=600000u
X9 a_1097_n195# a_1097_n195# a_1039_n140# VSUBS sky130_fd_pr__nfet_01v8 ad=4.06e+11p pd=3.38e+06u as=4.06e+11p ps=3.38e+06u w=1.4e+06u l=600000u
X10 a_n741_n140# a_n861_n195# a_n919_n140# VSUBS sky130_fd_pr__nfet_01v8 ad=0p pd=0u as=0p ps=0u w=1.4e+06u l=600000u
X11 a_n1097_n140# a_n1275_n140# a_n1275_n140# VSUBS sky130_fd_pr__nfet_01v8 ad=0p pd=0u as=4.06e+11p ps=3.38e+06u w=1.4e+06u l=600000u
X12 a_683_n140# a_563_n195# a_505_n140# VSUBS sky130_fd_pr__nfet_01v8 ad=0p pd=0u as=0p ps=0u w=1.4e+06u l=600000u
X13 a_1039_n140# a_919_n195# a_861_n140# VSUBS sky130_fd_pr__nfet_01v8 ad=0p pd=0u as=0p ps=0u w=1.4e+06u l=600000u
C0 a_n505_n195# a_n149_n195# 0.03fF
C1 a_n327_n195# a_n1039_n195# 0.01fF
C2 a_n207_n140# a_149_n140# 0.03fF
C3 a_29_n195# a_n1275_n140# 0.00fF
C4 a_327_n140# a_n1275_n140# 0.01fF
C5 a_327_n140# a_n1097_n140# 0.01fF
C6 a_n919_n140# a_149_n140# 0.01fF