* NGSPICE file created from analog_top_v2.ext - technology: sky130A

.subckt sky130_fd_pr__nfet_g5v0d10v5_BRTJC6 a_n345_n500# a_1135_n588# a_n603_n588#
+ a_n1393_n588# a_n1609_n500# a_661_n588# a_n1135_n500# a_n977_n500# a_1293_n588#
+ a_n761_n588# a_n503_n500# a_n1551_n588# a_129_n500# a_n1293_n500# a_287_n500# a_n661_n500#
+ a_1451_n588# a_n1451_n500# a_919_n500# a_445_n500# a_1077_n500# a_29_n588# a_n129_n588#
+ a_603_n500# a_187_n588# a_1235_n500# a_n287_n588# a_761_n500# a_819_n588# a_345_n588#
+ a_n1077_n588# a_n29_n500# a_1393_n500# a_n919_n588# a_n1743_n722# a_n187_n500# a_977_n588#
+ a_n445_n588# a_503_n588# a_n1235_n588# a_1551_n500# a_n819_n500#
X0 a_n819_n500# a_n919_n588# a_n977_n500# a_n1743_n722# sky130_fd_pr__nfet_g5v0d10v5 ad=1.45e+12p pd=1.058e+07u as=1.45e+12p ps=1.058e+07u w=5e+06u l=500000u
X1 a_n661_n500# a_n761_n588# a_n819_n500# a_n1743_n722# sky130_fd_pr__nfet_g5v0d10v5 ad=1.45e+12p pd=1.058e+07u as=0p ps=0u w=5e+06u l=500000u
X2 a_919_n500# a_819_n588# a_761_n500# a_n1743_n722# sky130_fd_pr__nfet_g5v0d10v5 ad=1.45e+12p pd=1.058e+07u as=1.45e+12p ps=1.058e+07u w=5e+06u l=500000u
X3 a_n187_n500# a_n287_n588# a_n345_n500# a_n1743_n722# sky130_fd_pr__nfet_g5v0d10v5 ad=1.45e+12p pd=1.058e+07u as=1.45e+12p ps=1.058e+07u w=5e+06u l=500000u
X4 a_761_n500# a_661_n588# a_603_n500# a_n1743_n722# sky130_fd_pr__nfet_g5v0d10v5 ad=0p pd=0u as=1.45e+12p ps=1.058e+07u w=5e+06u l=500000u
X5 a_287_n500# a_187_n588# a_129_n500# a_n1743_n722# sky130_fd_pr__nfet_g5v0d10v5 ad=1.45e+12p pd=1.058e+07u as=1.45e+12p ps=1.058e+07u w=5e+06u l=500000u
X6 a_n1293_n500# a_n1393_n588# a_n1451_n500# a_n1743_n722# sky130_fd_pr__nfet_g5v0d10v5 ad=1.45e+12p pd=1.058e+07u as=1.45e+12p ps=1.058e+07u w=5e+06u l=500000u
X7 a_1393_n500# a_1293_n588# a_1235_n500# a_n1743_n722# sky130_fd_pr__nfet_g5v0d10v5 ad=1.45e+12p pd=1.058e+07u as=1.45e+12p ps=1.058e+07u w=5e+06u l=500000u
X8 a_n345_n500# a_n445_n588# a_n503_n500# a_n1743_n722# sky130_fd_pr__nfet_g5v0d10v5 ad=0p pd=0u as=1.45e+12p ps=1.058e+07u w=5e+06u l=500000u
X9 a_129_n500# a_29_n588# a_n29_n500# a_n1743_n722# sky130_fd_pr__nfet_g5v0d10v5 ad=0p pd=0u as=1.45e+12p ps=1.058e+07u w=5e+06u l=500000u
X10 a_445_n500# a_345_n588# a_287_n500# a_n1743_n722# sky130_fd_pr__nfet_g5v0d10v5 ad=1.45e+12p pd=1.058e+07u as=0p ps=0u w=5e+06u l=500000u
X11 a_n1451_n500# a_n1551_n588# a_n1609_n500# a_n1743_n722# sky130_fd_pr__nfet_g5v0d10v5 ad=0p pd=0u as=1.45e+12p ps=1.058e+07u w=5e+06u l=500000u
X12 a_1551_n500# a_1451_n588# a_1393_n500# a_n1743_n722# sky130_fd_pr__nfet_g5v0d10v5 ad=1.45e+12p pd=1.058e+07u as=0p ps=0u w=5e+06u l=500000u
X13 a_n977_n500# a_n1077_n588# a_n1135_n500# a_n1743_n722# sky130_fd_pr__nfet_g5v0d10v5 ad=0p pd=0u as=1.45e+12p ps=1.058e+07u w=5e+06u l=500000u
X14 a_n503_n500# a_n603_n588# a_n661_n500# a_n1743_n722# sky130_fd_pr__nfet_g5v0d10v5 ad=0p pd=0u as=0p ps=0u w=5e+06u l=500000u
X15 a_1077_n500# a_977_n588# a_919_n500# a_n1743_n722# sky130_fd_pr__nfet_g5v0d10v5 ad=1.45e+12p pd=1.058e+07u as=0p ps=0u w=5e+06u l=500000u
X16 a_n29_n500# a_n129_n588# a_n187_n500# a_n1743_n722# sky130_fd_pr__nfet_g5v0d10v5 ad=0p pd=0u as=0p ps=0u w=5e+06u l=500000u
X17 a_603_n500# a_503_n588# a_445_n500# a_n1743_n722# sky130_fd_pr__nfet_g5v0d10v5 ad=0p pd=0u as=0p ps=0u w=5e+06u l=500000u
X18 a_n1135_n500# a_n1235_n588# a_n1293_n500# a_n1743_n722# sky130_fd_pr__nfet_g5v0d10v5 ad=0p pd=0u as=0p ps=0u w=5e+06u l=500000u
X19 a_1235_n500# a_1135_n588# a_1077_n500# a_n1743_n722# sky130_fd_pr__nfet_g5v0d10v5 ad=0p pd=0u as=0p ps=0u w=5e+06u l=500000u
C0 a_n345_n500# a_129_n500# 0.15fF
C1 a_n1135_n500# a_445_n500# 0.04fF
C2 a_661_n588# a_n287_n588# 0.01fF
C3 a_n29_n500# a_129_n500# 0.56fF
C4 a_n919_n588# a_n287_n588# 0.02fF
C5 a_1235_n500# a_761_n500# 0.15fF
C6 a_n503_n500# a_129_n500# 0.11fF
C7 a_919_n500# a_1393_n500# 0.15fF
C8 a_503_n588# a_n287_n588# 0.01fF
C9 a_n661_n500# a_129_n500# 0.09fF
C10 a_n345_n500# a_n187_n500# 0.56fF
C11 a_n187_n500# a_n29_n500# 0.56fF
C12 a_1077_n500# a_603_n500# 0.15fF
C13 a_919_n500# a_761_n500# 0.56fF
C14 a_n503_n500# a_n187_n500# 0.24fF
C15 a_n819_n500# a_n345_n500# 0.15fF
C16 a_n819_n500# a_n29_n500# 0.09fF
C17 a_1235_n500# a_287_n500# 0.07fF
C18 a_n919_n588# a_n1235_n588# 0.04fF
C19 a_n661_n500# a_n187_n500# 0.15fF
C20 a_n819_n500# a_n503_n500# 0.24fF
C21 a_n977_n500# a_n345_n500# 0.11fF
C22 a_n977_n500# a_n29_n500# 0.07fF
C23 a_n819_n500# a_n661_n500# 0.56fF
C24 a_n977_n500# a_n503_n500# 0.15fF
C25 a_n1135_n500# a_n345_n500# 0.09fF
C26 a_n1135_n500# a_n29_n500# 0.06fF
C27 a_1293_n588# a_661_n588# 0.02fF
C28 a_n1135_n500# a_n503_n500# 0.11fF
C29 a_n977_n500# a_n661_n500# 0.24fF
C30 a_919_n500# a_287_n500# 0.11fF
C31 a_n761_n588# a_345_n588# 0.01fF
C32 a_1551_n500# a_603_n500# 0.07fF
C33 a_1293_n588# a_503_n588# 0.01fF
C34 a_1135_n588# a_661_n588# 0.02fF
C35 a_n1551_n588# a_n919_n588# 0.02fF
C36 a_n1135_n500# a_n661_n500# 0.15fF
C37 a_n129_n588# a_661_n588# 0.01fF
C38 a_1135_n588# a_503_n588# 0.02fF
C39 a_n919_n588# a_n129_n588# 0.01fF
C40 a_661_n588# a_29_n588# 0.02fF
C41 a_n919_n588# a_29_n588# 0.01fF
C42 a_1077_n500# a_129_n500# 0.07fF
C43 a_n129_n588# a_503_n588# 0.02fF
C44 a_n761_n588# a_n603_n588# 0.12fF
C45 a_n603_n588# a_n1393_n588# 0.01fF
C46 a_1393_n500# a_445_n500# 0.07fF
C47 a_503_n588# a_29_n588# 0.02fF
C48 a_n1077_n588# a_n761_n588# 0.04fF
C49 a_n1293_n500# a_n345_n500# 0.07fF
C50 a_n1077_n588# a_n1393_n588# 0.04fF
C51 a_n1293_n500# a_n29_n500# 0.05fF
C52 a_977_n588# a_187_n588# 0.01fF
C53 a_1077_n500# a_n187_n500# 0.05fF
C54 a_n1293_n500# a_n503_n500# 0.09fF
C55 a_445_n500# a_761_n500# 0.24fF
C56 a_n1451_n500# a_n345_n500# 0.06fF
C57 a_819_n588# a_187_n588# 0.02fF
C58 a_n1451_n500# a_n29_n500# 0.05fF
C59 a_n445_n588# a_n761_n588# 0.04fF
C60 a_n445_n588# a_n1393_n588# 0.01fF
C61 a_n1293_n500# a_n661_n500# 0.11fF
C62 a_n1451_n500# a_n503_n500# 0.07fF
C63 a_1551_n500# a_129_n500# 0.05fF
C64 a_n1451_n500# a_n661_n500# 0.09fF
C65 a_187_n588# a_n287_n588# 0.02fF
C66 a_287_n500# a_445_n500# 0.56fF
C67 a_1393_n500# a_n29_n500# 0.05fF
C68 a_n1609_n500# a_n187_n500# 0.05fF
C69 a_n819_n500# a_n1609_n500# 0.09fF
C70 a_819_n588# a_977_n588# 0.12fF
C71 a_n345_n500# a_761_n500# 0.06fF
C72 a_129_n500# a_603_n500# 0.15fF
C73 a_n29_n500# a_761_n500# 0.09fF
C74 a_n977_n500# a_n1609_n500# 0.11fF
C75 a_n503_n500# a_761_n500# 0.05fF
C76 a_187_n588# a_n1235_n588# 0.01fF
C77 a_919_n500# a_1235_n500# 0.24fF
C78 a_n1135_n500# a_n1609_n500# 0.15fF
C79 a_n661_n500# a_761_n500# 0.05fF
C80 a_977_n588# a_n287_n588# 0.01fF
C81 a_n187_n500# a_603_n500# 0.09fF
C82 a_661_n588# a_345_n588# 0.04fF
C83 a_819_n588# a_n287_n588# 0.01fF
C84 a_n919_n588# a_345_n588# 0.01fF
C85 a_1293_n588# a_187_n588# 0.01fF
C86 a_n345_n500# a_287_n500# 0.11fF
C87 a_n29_n500# a_287_n500# 0.24fF
C88 a_503_n588# a_345_n588# 0.12fF
C89 a_n819_n500# a_603_n500# 0.05fF
C90 a_1135_n588# a_187_n588# 0.01fF
C91 a_n503_n500# a_287_n500# 0.09fF
C92 a_n977_n500# a_603_n500# 0.04fF
C93 a_n603_n588# a_661_n588# 0.01fF
C94 a_n129_n588# a_187_n588# 0.04fF
C95 a_n661_n500# a_287_n500# 0.07fF
C96 a_n919_n588# a_n603_n588# 0.04fF
C97 a_187_n588# a_29_n588# 0.12fF
C98 a_n603_n588# a_503_n588# 0.01fF
C99 a_n1293_n500# a_n1609_n500# 0.24fF
C100 a_n1077_n588# a_n919_n588# 0.12fF
C101 a_1077_n500# a_1393_n500# 0.24fF
C102 a_n761_n588# a_n1393_n588# 0.02fF
C103 a_n1077_n588# a_503_n588# 0.01fF
C104 a_n1451_n500# a_n1609_n500# 0.56fF
C105 a_1293_n588# a_977_n588# 0.04fF
C106 a_n445_n588# a_661_n588# 0.01fF
C107 a_n919_n588# a_n445_n588# 0.02fF
C108 a_n187_n500# a_129_n500# 0.24fF
C109 a_1077_n500# a_761_n500# 0.24fF
C110 a_1293_n588# a_819_n588# 0.02fF
C111 a_1135_n588# a_977_n588# 0.12fF
C112 a_n445_n588# a_503_n588# 0.01fF
C113 a_n287_n588# a_n1235_n588# 0.01fF
C114 a_n819_n500# a_129_n500# 0.07fF
C115 a_977_n588# a_n129_n588# 0.01fF
C116 a_1135_n588# a_819_n588# 0.04fF
C117 a_1235_n500# a_445_n500# 0.09fF
C118 a_1451_n588# a_661_n588# 0.01fF
C119 a_977_n588# a_29_n588# 0.01fF
C120 a_1393_n500# a_1551_n500# 0.56fF
C121 a_n977_n500# a_129_n500# 0.06fF
C122 a_819_n588# a_n129_n588# 0.01fF
C123 a_1293_n588# a_n287_n588# 0.01fF
C124 a_1451_n588# a_503_n588# 0.01fF
C125 a_819_n588# a_29_n588# 0.01fF
C126 a_n1135_n500# a_129_n500# 0.05fF
C127 a_n819_n500# a_n187_n500# 0.11fF
C128 a_1135_n588# a_n287_n588# 0.01fF
C129 a_n1551_n588# a_n287_n588# 0.01fF
C130 a_1077_n500# a_287_n500# 0.09fF
C131 a_919_n500# a_445_n500# 0.15fF
C132 a_1551_n500# a_761_n500# 0.09fF
C133 a_n977_n500# a_n187_n500# 0.09fF
C134 a_n129_n588# a_n287_n588# 0.12fF
C135 a_n287_n588# a_29_n588# 0.04fF
C136 a_n1135_n500# a_n187_n500# 0.07fF
C137 a_n977_n500# a_n819_n500# 0.56fF
C138 a_1235_n500# a_n345_n500# 0.04fF
C139 a_1393_n500# a_603_n500# 0.09fF
C140 a_n1135_n500# a_n819_n500# 0.24fF
C141 a_1235_n500# a_n29_n500# 0.05fF
C142 a_n1551_n588# a_n1235_n588# 0.04fF
C143 a_1551_n500# a_287_n500# 0.05fF
C144 a_n1135_n500# a_n977_n500# 0.56fF
C145 a_n1293_n500# a_129_n500# 0.05fF
C146 a_187_n588# a_345_n588# 0.12fF
C147 a_n129_n588# a_n1235_n588# 0.01fF
C148 a_603_n500# a_761_n500# 0.56fF
C149 a_n1235_n588# a_29_n588# 0.01fF
C150 a_919_n500# a_n345_n500# 0.05fF
C151 a_n1451_n500# a_129_n500# 0.04fF
C152 a_1135_n588# a_1293_n588# 0.12fF
C153 a_919_n500# a_n29_n500# 0.07fF
C154 a_919_n500# a_n503_n500# 0.05fF
C155 a_1293_n588# a_n129_n588# 0.01fF
C156 a_n1293_n500# a_n187_n500# 0.06fF
C157 a_n603_n588# a_187_n588# 0.01fF
C158 a_1293_n588# a_29_n588# 0.01fF
C159 a_919_n500# a_n661_n500# 0.04fF
C160 a_n761_n588# a_661_n588# 0.01fF
C161 a_1135_n588# a_n129_n588# 0.01fF
C162 a_n919_n588# a_n761_n588# 0.12fF
C163 a_n1551_n588# a_n129_n588# 0.01fF
C164 a_n1451_n500# a_n187_n500# 0.05fF
C165 a_n919_n588# a_n1393_n588# 0.02fF
C166 a_n819_n500# a_n1293_n500# 0.15fF
C167 a_1135_n588# a_29_n588# 0.01fF
C168 a_n1077_n588# a_187_n588# 0.01fF
C169 a_n1551_n588# a_29_n588# 0.01fF
C170 a_287_n500# a_603_n500# 0.24fF
C171 a_1393_n500# a_129_n500# 0.05fF
C172 a_n761_n588# a_503_n588# 0.01fF
C173 a_n819_n500# a_n1451_n500# 0.11fF
C174 a_n977_n500# a_n1293_n500# 0.24fF
C175 a_977_n588# a_345_n588# 0.02fF
C176 a_n129_n588# a_29_n588# 0.12fF
C177 a_n445_n588# a_187_n588# 0.02fF
C178 a_n1135_n500# a_n1293_n500# 0.56fF
C179 a_n977_n500# a_n1451_n500# 0.15fF
C180 a_819_n588# a_345_n588# 0.02fF
C181 a_129_n500# a_761_n500# 0.11fF
C182 a_n1135_n500# a_n1451_n500# 0.24fF
C183 a_1393_n500# a_n187_n500# 0.04fF
C184 a_977_n588# a_n603_n588# 0.01fF
C185 a_1077_n500# a_1235_n500# 0.56fF
C186 a_1451_n588# a_187_n588# 0.01fF
C187 a_n287_n588# a_345_n588# 0.02fF
C188 a_819_n588# a_n603_n588# 0.01fF
C189 a_n187_n500# a_761_n500# 0.07fF
C190 a_n345_n500# a_445_n500# 0.09fF
C191 a_129_n500# a_287_n500# 0.56fF
C192 a_n29_n500# a_445_n500# 0.15fF
C193 a_n819_n500# a_761_n500# 0.04fF
C194 a_919_n500# a_1077_n500# 0.56fF
C195 a_977_n588# a_n445_n588# 0.01fF
C196 a_n503_n500# a_445_n500# 0.07fF
C197 a_n603_n588# a_n287_n588# 0.04fF
C198 a_819_n588# a_n445_n588# 0.01fF
C199 a_1235_n500# a_1551_n500# 0.24fF
C200 a_n661_n500# a_445_n500# 0.06fF
C201 a_n1451_n500# a_n1293_n500# 0.56fF
C202 a_n1077_n588# a_n287_n588# 0.01fF
C203 a_345_n588# a_n1235_n588# 0.01fF
C204 a_1451_n588# a_977_n588# 0.02fF
C205 a_n187_n500# a_287_n500# 0.15fF
C206 a_1451_n588# a_819_n588# 0.02fF
C207 a_n445_n588# a_n287_n588# 0.12fF
C208 a_n819_n500# a_287_n500# 0.06fF
C209 a_919_n500# a_1551_n500# 0.11fF
C210 a_1293_n588# a_345_n588# 0.01fF
C211 a_n603_n588# a_n1235_n588# 0.02fF
C212 a_n977_n500# a_287_n500# 0.05fF
C213 a_1135_n588# a_345_n588# 0.01fF
C214 a_n345_n500# a_n29_n500# 0.24fF
C215 a_n1135_n500# a_287_n500# 0.05fF
C216 a_n503_n500# a_n345_n500# 0.56fF
C217 a_n1077_n588# a_n1235_n588# 0.12fF
C218 a_1235_n500# a_603_n500# 0.11fF
C219 a_n129_n588# a_345_n588# 0.02fF
C220 a_n503_n500# a_n29_n500# 0.15fF
C221 a_n919_n588# a_661_n588# 0.01fF
C222 a_345_n588# a_29_n588# 0.04fF
C223 a_n661_n500# a_n345_n500# 0.24fF
C224 a_n661_n500# a_n29_n500# 0.11fF
C225 a_503_n588# a_661_n588# 0.12fF
C226 a_n445_n588# a_n1235_n588# 0.01fF
C227 a_n761_n588# a_187_n588# 0.01fF
C228 a_n919_n588# a_503_n588# 0.01fF
C229 a_187_n588# a_n1393_n588# 0.01fF
C230 a_n1551_n588# a_n603_n588# 0.01fF
C231 a_n661_n500# a_n503_n500# 0.56fF
C232 a_1077_n500# a_445_n500# 0.11fF
C233 a_919_n500# a_603_n500# 0.24fF
C234 a_n129_n588# a_n603_n588# 0.02fF
C235 a_n1077_n588# a_n1551_n588# 0.02fF
C236 a_n603_n588# a_29_n588# 0.02fF
C237 a_n1077_n588# a_n129_n588# 0.01fF
C238 a_n1077_n588# a_29_n588# 0.01fF
C239 a_1135_n588# a_n445_n588# 0.01fF
C240 a_n1551_n588# a_n445_n588# 0.01fF
C241 a_n1293_n500# a_287_n500# 0.04fF
C242 a_1393_n500# a_761_n500# 0.11fF
C243 a_n445_n588# a_n129_n588# 0.04fF
C244 a_1293_n588# a_1451_n588# 0.12fF
C245 a_1235_n500# a_129_n500# 0.06fF
C246 a_n445_n588# a_29_n588# 0.02fF
C247 a_1551_n500# a_445_n500# 0.06fF
C248 a_1135_n588# a_1451_n588# 0.04fF
C249 a_819_n588# a_n761_n588# 0.01fF
C250 a_1451_n588# a_n129_n588# 0.01fF
C251 a_1077_n500# a_n345_n500# 0.05fF
C252 a_1451_n588# a_29_n588# 0.01fF
C253 a_1077_n500# a_n29_n500# 0.06fF
C254 a_1235_n500# a_n187_n500# 0.05fF
C255 a_919_n500# a_129_n500# 0.09fF
C256 a_1077_n500# a_n503_n500# 0.04fF
C257 a_1393_n500# a_287_n500# 0.06fF
C258 a_n761_n588# a_n287_n588# 0.02fF
C259 a_n287_n588# a_n1393_n588# 0.01fF
C260 a_919_n500# a_n187_n500# 0.06fF
C261 a_287_n500# a_761_n500# 0.15fF
C262 a_445_n500# a_603_n500# 0.56fF
C263 a_n1609_n500# a_n345_n500# 0.05fF
C264 a_1551_n500# a_n29_n500# 0.04fF
C265 a_n1609_n500# a_n29_n500# 0.04fF
C266 a_n1609_n500# a_n503_n500# 0.06fF
C267 a_n761_n588# a_n1235_n588# 0.02fF
C268 a_n1393_n588# a_n1235_n588# 0.12fF
C269 a_n1609_n500# a_n661_n500# 0.07fF
C270 a_n603_n588# a_345_n588# 0.01fF
C271 a_187_n588# a_661_n588# 0.02fF
C272 a_n919_n588# a_187_n588# 0.01fF
C273 a_187_n588# a_503_n588# 0.04fF
C274 a_n1077_n588# a_345_n588# 0.01fF
C275 a_n345_n500# a_603_n500# 0.07fF
C276 a_n1551_n588# a_n761_n588# 0.01fF
C277 a_n1551_n588# a_n1393_n588# 0.12fF
C278 a_n29_n500# a_603_n500# 0.11fF
C279 a_129_n500# a_445_n500# 0.24fF
C280 a_n445_n588# a_345_n588# 0.01fF
C281 a_n503_n500# a_603_n500# 0.06fF
C282 a_n129_n588# a_n761_n588# 0.02fF
C283 a_n129_n588# a_n1393_n588# 0.01fF
C284 a_n761_n588# a_29_n588# 0.01fF
C285 a_n1393_n588# a_29_n588# 0.01fF
C286 a_n1077_n588# a_n603_n588# 0.02fF
C287 a_n661_n500# a_603_n500# 0.05fF
C288 a_977_n588# a_661_n588# 0.04fF
C289 a_n187_n500# a_445_n500# 0.11fF
C290 a_1451_n588# a_345_n588# 0.01fF
C291 a_n445_n588# a_n603_n588# 0.12fF
C292 a_977_n588# a_503_n588# 0.02fF
C293 a_819_n588# a_661_n588# 0.12fF
C294 a_n819_n500# a_445_n500# 0.05fF
C295 a_1077_n500# a_1551_n500# 0.15fF
C296 a_1235_n500# a_1393_n500# 0.56fF
C297 a_n1077_n588# a_n445_n588# 0.02fF
C298 a_819_n588# a_503_n588# 0.04fF
C299 a_n977_n500# a_445_n500# 0.05fF
C300 a_1551_n500# a_n1743_n722# 0.30fF
C301 a_1393_n500# a_n1743_n722# 0.13fF
C302 a_1235_n500# a_n1743_n722# 0.09fF
C303 a_1077_n500# a_n1743_n722# 0.07fF
C304 a_919_n500# a_n1743_n722# 0.06fF
C305 a_761_n500# a_n1743_n722# 0.05fF
C306 a_603_n500# a_n1743_n722# 0.05fF
C307 a_445_n500# a_n1743_n722# 0.04fF
C308 a_287_n500# a_n1743_n722# 0.04fF
C309 a_129_n500# a_n1743_n722# 0.04fF
C310 a_n29_n500# a_n1743_n722# 0.02fF
C311 a_n187_n500# a_n1743_n722# 0.04fF
C312 a_n345_n500# a_n1743_n722# 0.04fF
C313 a_n503_n500# a_n1743_n722# 0.04fF
C314 a_n661_n500# a_n1743_n722# 0.05fF
C315 a_n819_n500# a_n1743_n722# 0.05fF
C316 a_n977_n500# a_n1743_n722# 0.06fF
C317 a_n1135_n500# a_n1743_n722# 0.07fF
C318 a_n1293_n500# a_n1743_n722# 0.09fF
C319 a_n1451_n500# a_n1743_n722# 0.13fF
C320 a_n1609_n500# a_n1743_n722# 0.30fF
C321 a_1451_n588# a_n1743_n722# 0.28fF
C322 a_1293_n588# a_n1743_n722# 0.23fF
C323 a_1135_n588# a_n1743_n722# 0.24fF
C324 a_977_n588# a_n1743_n722# 0.25fF
C325 a_819_n588# a_n1743_n722# 0.26fF
C326 a_661_n588# a_n1743_n722# 0.26fF
C327 a_503_n588# a_n1743_n722# 0.27fF
C328 a_345_n588# a_n1743_n722# 0.28fF
C329 a_187_n588# a_n1743_n722# 0.28fF
C330 a_29_n588# a_n1743_n722# 0.28fF
C331 a_n129_n588# a_n1743_n722# 0.28fF
C332 a_n287_n588# a_n1743_n722# 0.28fF
C333 a_n445_n588# a_n1743_n722# 0.28fF
C334 a_n603_n588# a_n1743_n722# 0.28fF
C335 a_n761_n588# a_n1743_n722# 0.28fF
C336 a_n919_n588# a_n1743_n722# 0.28fF
C337 a_n1077_n588# a_n1743_n722# 0.28fF
C338 a_n1235_n588# a_n1743_n722# 0.29fF
C339 a_n1393_n588# a_n1743_n722# 0.29fF
C340 a_n1551_n588# a_n1743_n722# 0.34fF
.ends

.subckt sky130_fd_pr__pfet_g5v0d10v5_CADZ46 a_n345_n500# a_n1609_n500# a_n1135_n500#
+ a_29_n597# a_n977_n500# a_n129_n597# a_187_n597# a_n503_n500# a_129_n500# a_n1293_n500#
+ a_n287_n597# a_819_n597# a_n1077_n597# a_287_n500# a_n661_n500# a_345_n597# a_n919_n597#
+ a_n1451_n500# a_977_n597# a_n445_n597# a_919_n500# a_n1235_n597# a_445_n500# a_503_n597#
+ w_n1809_n797# a_n603_n597# a_1077_n500# a_1135_n597# a_661_n597# a_n1393_n597# a_603_n500#
+ a_1293_n597# a_n761_n597# a_1235_n500# a_n1551_n597# a_761_n500# a_n29_n500# a_1451_n597#
+ a_1393_n500# a_n187_n500# a_1551_n500# a_n819_n500# VSUBS
X0 a_n819_n500# a_n919_n597# a_n977_n500# w_n1809_n797# sky130_fd_pr__pfet_g5v0d10v5 ad=1.45e+12p pd=1.058e+07u as=1.45e+12p ps=1.058e+07u w=5e+06u l=500000u
X1 a_n661_n500# a_n761_n597# a_n819_n500# w_n1809_n797# sky130_fd_pr__pfet_g5v0d10v5 ad=1.45e+12p pd=1.058e+07u as=0p ps=0u w=5e+06u l=500000u
X2 a_919_n500# a_819_n597# a_761_n500# w_n1809_n797# sky130_fd_pr__pfet_g5v0d10v5 ad=1.45e+12p pd=1.058e+07u as=1.45e+12p ps=1.058e+07u w=5e+06u l=500000u
X3 a_n187_n500# a_n287_n597# a_n345_n500# w_n1809_n797# sky130_fd_pr__pfet_g5v0d10v5 ad=1.45e+12p pd=1.058e+07u as=1.45e+12p ps=1.058e+07u w=5e+06u l=500000u
X4 a_761_n500# a_661_n597# a_603_n500# w_n1809_n797# sky130_fd_pr__pfet_g5v0d10v5 ad=0p pd=0u as=1.45e+12p ps=1.058e+07u w=5e+06u l=500000u
X5 a_287_n500# a_187_n597# a_129_n500# w_n1809_n797# sky130_fd_pr__pfet_g5v0d10v5 ad=1.45e+12p pd=1.058e+07u as=1.45e+12p ps=1.058e+07u w=5e+06u l=500000u
X6 a_n1293_n500# a_n1393_n597# a_n1451_n500# w_n1809_n797# sky130_fd_pr__pfet_g5v0d10v5 ad=1.45e+12p pd=1.058e+07u as=1.45e+12p ps=1.058e+07u w=5e+06u l=500000u
X7 a_1393_n500# a_1293_n597# a_1235_n500# w_n1809_n797# sky130_fd_pr__pfet_g5v0d10v5 ad=1.45e+12p pd=1.058e+07u as=1.45e+12p ps=1.058e+07u w=5e+06u l=500000u
X8 a_n345_n500# a_n445_n597# a_n503_n500# w_n1809_n797# sky130_fd_pr__pfet_g5v0d10v5 ad=0p pd=0u as=1.45e+12p ps=1.058e+07u w=5e+06u l=500000u
X9 a_129_n500# a_29_n597# a_n29_n500# w_n1809_n797# sky130_fd_pr__pfet_g5v0d10v5 ad=0p pd=0u as=1.45e+12p ps=1.058e+07u w=5e+06u l=500000u
X10 a_445_n500# a_345_n597# a_287_n500# w_n1809_n797# sky130_fd_pr__pfet_g5v0d10v5 ad=1.45e+12p pd=1.058e+07u as=0p ps=0u w=5e+06u l=500000u
X11 a_n1451_n500# a_n1551_n597# a_n1609_n500# w_n1809_n797# sky130_fd_pr__pfet_g5v0d10v5 ad=0p pd=0u as=1.45e+12p ps=1.058e+07u w=5e+06u l=500000u
X12 a_1551_n500# a_1451_n597# a_1393_n500# w_n1809_n797# sky130_fd_pr__pfet_g5v0d10v5 ad=1.45e+12p pd=1.058e+07u as=0p ps=0u w=5e+06u l=500000u
X13 a_n977_n500# a_n1077_n597# a_n1135_n500# w_n1809_n797# sky130_fd_pr__pfet_g5v0d10v5 ad=0p pd=0u as=1.45e+12p ps=1.058e+07u w=5e+06u l=500000u
X14 a_1077_n500# a_977_n597# a_919_n500# w_n1809_n797# sky130_fd_pr__pfet_g5v0d10v5 ad=1.45e+12p pd=1.058e+07u as=0p ps=0u w=5e+06u l=500000u
X15 a_n503_n500# a_n603_n597# a_n661_n500# w_n1809_n797# sky130_fd_pr__pfet_g5v0d10v5 ad=0p pd=0u as=0p ps=0u w=5e+06u l=500000u
X16 a_n29_n500# a_n129_n597# a_n187_n500# w_n1809_n797# sky130_fd_pr__pfet_g5v0d10v5 ad=0p pd=0u as=0p ps=0u w=5e+06u l=500000u
X17 a_603_n500# a_503_n597# a_445_n500# w_n1809_n797# sky130_fd_pr__pfet_g5v0d10v5 ad=0p pd=0u as=0p ps=0u w=5e+06u l=500000u
X18 a_n1135_n500# a_n1235_n597# a_n1293_n500# w_n1809_n797# sky130_fd_pr__pfet_g5v0d10v5 ad=0p pd=0u as=0p ps=0u w=5e+06u l=500000u
X19 a_1235_n500# a_1135_n597# a_1077_n500# w_n1809_n797# sky130_fd_pr__pfet_g5v0d10v5 ad=0p pd=0u as=0p ps=0u w=5e+06u l=500000u
C0 a_603_n500# a_1235_n500# 0.11fF
C1 a_n503_n500# a_n977_n500# 0.15fF
C2 a_n345_n500# a_n1135_n500# 0.09fF
C3 a_n919_n597# a_345_n597# 0.01fF
C4 a_1135_n597# a_1451_n597# 0.04fF
C5 a_1451_n597# a_345_n597# 0.01fF
C6 a_n661_n500# a_n1451_n500# 0.09fF
C7 a_n819_n500# a_n1293_n500# 0.15fF
C8 a_129_n500# a_n29_n500# 0.56fF
C9 a_445_n500# w_n1809_n797# 0.04fF
C10 a_n1235_n597# a_n445_n597# 0.01fF
C11 a_n919_n597# a_n287_n597# 0.02fF
C12 a_n1135_n500# a_n1609_n500# 0.15fF
C13 a_n445_n597# a_503_n597# 0.01fF
C14 a_129_n500# a_287_n500# 0.56fF
C15 a_n661_n500# a_919_n500# 0.04fF
C16 a_n445_n597# a_661_n597# 0.01fF
C17 w_n1809_n797# a_n1293_n500# 0.09fF
C18 a_n919_n597# a_n1077_n597# 0.12fF
C19 a_1077_n500# a_1393_n500# 0.24fF
C20 w_n1809_n797# a_n445_n597# 0.24fF
C21 a_603_n500# a_n187_n500# 0.09fF
C22 a_761_n500# a_1551_n500# 0.09fF
C23 a_n503_n500# a_n819_n500# 0.24fF
C24 a_n661_n500# a_n977_n500# 0.24fF
C25 a_n819_n500# a_761_n500# 0.04fF
C26 a_n603_n597# a_n129_n597# 0.02fF
C27 a_n129_n597# a_819_n597# 0.01fF
C28 a_919_n500# a_1235_n500# 0.24fF
C29 a_n603_n597# a_n1393_n597# 0.01fF
C30 a_445_n500# a_129_n500# 0.24fF
C31 a_n1235_n597# a_n919_n597# 0.04fF
C32 w_n1809_n797# a_n503_n500# 0.04fF
C33 a_n919_n597# a_503_n597# 0.01fF
C34 w_n1809_n797# a_761_n500# 0.05fF
C35 a_n919_n597# a_661_n597# 0.01fF
C36 a_n603_n597# a_n1551_n597# 0.01fF
C37 a_1077_n500# a_n29_n500# 0.06fF
C38 a_503_n597# a_1451_n597# 0.01fF
C39 a_1293_n597# a_n129_n597# 0.01fF
C40 a_n129_n597# a_187_n597# 0.04fF
C41 a_187_n597# a_n1393_n597# 0.01fF
C42 a_n345_n500# a_n29_n500# 0.24fF
C43 a_1451_n597# a_661_n597# 0.01fF
C44 a_n1451_n500# a_n187_n500# 0.05fF
C45 a_n1293_n500# a_129_n500# 0.05fF
C46 w_n1809_n797# a_n919_n597# 0.24fF
C47 a_n761_n597# a_n129_n597# 0.02fF
C48 w_n1809_n797# a_1451_n597# 0.24fF
C49 a_n761_n597# a_n1393_n597# 0.02fF
C50 a_1077_n500# a_287_n500# 0.09fF
C51 a_n819_n500# a_n661_n500# 0.56fF
C52 a_n345_n500# a_287_n500# 0.11fF
C53 a_919_n500# a_n187_n500# 0.06fF
C54 a_29_n597# a_n129_n597# 0.12fF
C55 a_n29_n500# a_n1609_n500# 0.04fF
C56 a_29_n597# a_n1393_n597# 0.01fF
C57 a_n761_n597# a_n1551_n597# 0.01fF
C58 w_n1809_n797# a_n661_n500# 0.05fF
C59 a_1235_n500# a_1551_n500# 0.24fF
C60 a_n503_n500# a_129_n500# 0.11fF
C61 a_1135_n597# a_977_n597# 0.12fF
C62 a_n977_n500# a_n187_n500# 0.09fF
C63 a_n1135_n500# a_n29_n500# 0.06fF
C64 a_29_n597# a_n1551_n597# 0.01fF
C65 a_761_n500# a_129_n500# 0.11fF
C66 a_977_n597# a_345_n597# 0.02fF
C67 a_603_n500# a_919_n500# 0.24fF
C68 a_445_n500# a_1077_n500# 0.11fF
C69 a_n445_n597# a_n603_n597# 0.12fF
C70 a_n445_n597# a_819_n597# 0.01fF
C71 a_445_n500# a_n345_n500# 0.09fF
C72 a_n1135_n500# a_287_n500# 0.05fF
C73 a_n287_n597# a_977_n597# 0.01fF
C74 w_n1809_n797# a_1235_n500# 0.09fF
C75 a_603_n500# a_n977_n500# 0.04fF
C76 a_n445_n597# a_187_n597# 0.02fF
C77 a_n345_n500# a_n1293_n500# 0.07fF
C78 a_n29_n500# a_1393_n500# 0.05fF
C79 a_n761_n597# a_n445_n597# 0.04fF
C80 a_n661_n500# a_129_n500# 0.09fF
C81 a_n819_n500# a_n187_n500# 0.11fF
C82 a_445_n500# a_n1135_n500# 0.04fF
C83 a_287_n500# a_1393_n500# 0.06fF
C84 a_n919_n597# a_n603_n597# 0.04fF
C85 a_n1293_n500# a_n1609_n500# 0.24fF
C86 a_n445_n597# a_29_n597# 0.02fF
C87 a_1451_n597# a_819_n597# 0.02fF
C88 a_n503_n500# a_1077_n500# 0.04fF
C89 a_n503_n500# a_n345_n500# 0.56fF
C90 a_603_n500# a_1551_n500# 0.07fF
C91 w_n1809_n797# a_n187_n500# 0.04fF
C92 a_761_n500# a_1077_n500# 0.24fF
C93 a_1135_n597# a_345_n597# 0.01fF
C94 a_n1135_n500# a_n1293_n500# 0.56fF
C95 a_n977_n500# a_n1451_n500# 0.15fF
C96 a_n345_n500# a_761_n500# 0.06fF
C97 a_603_n500# a_n819_n500# 0.05fF
C98 a_503_n597# a_977_n597# 0.02fF
C99 a_129_n500# a_1235_n500# 0.06fF
C100 a_n919_n597# a_187_n597# 0.01fF
C101 a_977_n597# a_661_n597# 0.04fF
C102 a_1293_n597# a_1451_n597# 0.12fF
C103 a_187_n597# a_1451_n597# 0.01fF
C104 a_n761_n597# a_n919_n597# 0.12fF
C105 a_1135_n597# a_n287_n597# 0.01fF
C106 w_n1809_n797# a_977_n597# 0.20fF
C107 a_445_n500# a_1393_n500# 0.07fF
C108 a_n503_n500# a_n1609_n500# 0.06fF
C109 a_n129_n597# a_n1393_n597# 0.01fF
C110 a_n287_n597# a_345_n597# 0.02fF
C111 a_287_n500# a_n29_n500# 0.24fF
C112 a_603_n500# w_n1809_n797# 0.05fF
C113 a_n919_n597# a_29_n597# 0.01fF
C114 a_n503_n500# a_n1135_n500# 0.11fF
C115 a_n129_n597# a_n1551_n597# 0.01fF
C116 a_n1551_n597# a_n1393_n597# 0.12fF
C117 a_345_n597# a_n1077_n597# 0.01fF
C118 a_29_n597# a_1451_n597# 0.01fF
C119 a_n345_n500# a_n661_n500# 0.24fF
C120 a_n819_n500# a_n1451_n500# 0.11fF
C121 a_129_n500# a_n187_n500# 0.24fF
C122 a_919_n500# a_1551_n500# 0.11fF
C123 a_n287_n597# a_n1077_n597# 0.01fF
C124 a_445_n500# a_n29_n500# 0.15fF
C125 a_n1235_n597# a_345_n597# 0.01fF
C126 a_n661_n500# a_n1609_n500# 0.07fF
C127 w_n1809_n797# a_n1451_n500# 0.13fF
C128 a_1135_n597# a_503_n597# 0.02fF
C129 a_1077_n500# a_1235_n500# 0.56fF
C130 a_1135_n597# a_661_n597# 0.02fF
C131 a_n345_n500# a_1235_n500# 0.04fF
C132 a_603_n500# a_129_n500# 0.15fF
C133 a_445_n500# a_287_n500# 0.56fF
C134 a_503_n597# a_345_n597# 0.12fF
C135 a_345_n597# a_661_n597# 0.04fF
C136 a_761_n500# a_1393_n500# 0.11fF
C137 a_n1293_n500# a_n29_n500# 0.05fF
C138 a_n661_n500# a_n1135_n500# 0.15fF
C139 a_n819_n500# a_n977_n500# 0.56fF
C140 w_n1809_n797# a_1135_n597# 0.20fF
C141 w_n1809_n797# a_919_n500# 0.06fF
C142 a_n1235_n597# a_n287_n597# 0.01fF
C143 w_n1809_n797# a_345_n597# 0.23fF
C144 a_n445_n597# a_n129_n597# 0.04fF
C145 a_n445_n597# a_n1393_n597# 0.01fF
C146 a_n287_n597# a_503_n597# 0.01fF
C147 a_n1293_n500# a_287_n500# 0.04fF
C148 a_n287_n597# a_661_n597# 0.01fF
C149 a_n1235_n597# a_n1077_n597# 0.12fF
C150 w_n1809_n797# a_n977_n500# 0.06fF
C151 w_n1809_n797# a_n287_n597# 0.24fF
C152 a_n603_n597# a_977_n597# 0.01fF
C153 a_977_n597# a_819_n597# 0.12fF
C154 a_503_n597# a_n1077_n597# 0.01fF
C155 a_n445_n597# a_n1551_n597# 0.01fF
C156 a_1077_n500# a_n187_n500# 0.05fF
C157 a_n503_n500# a_n29_n500# 0.15fF
C158 a_n345_n500# a_n187_n500# 0.56fF
C159 a_n1451_n500# a_129_n500# 0.04fF
C160 a_761_n500# a_n29_n500# 0.09fF
C161 w_n1809_n797# a_n1077_n597# 0.24fF
C162 a_n503_n500# a_287_n500# 0.09fF
C163 a_187_n597# a_977_n597# 0.01fF
C164 a_1293_n597# a_977_n597# 0.04fF
C165 a_919_n500# a_129_n500# 0.09fF
C166 a_761_n500# a_287_n500# 0.15fF
C167 a_n919_n597# a_n129_n597# 0.01fF
C168 a_n919_n597# a_n1393_n597# 0.02fF
C169 a_n187_n500# a_n1609_n500# 0.05fF
C170 a_603_n500# a_1077_n500# 0.15fF
C171 a_603_n500# a_n345_n500# 0.07fF
C172 w_n1809_n797# a_1551_n500# 0.30fF
C173 a_n129_n597# a_1451_n597# 0.01fF
C174 w_n1809_n797# a_n819_n500# 0.05fF
C175 a_503_n597# a_661_n597# 0.12fF
C176 w_n1809_n797# a_n1235_n597# 0.24fF
C177 a_1235_n500# a_1393_n500# 0.56fF
C178 a_n1135_n500# a_n187_n500# 0.07fF
C179 a_n977_n500# a_129_n500# 0.06fF
C180 a_n919_n597# a_n1551_n597# 0.02fF
C181 a_29_n597# a_977_n597# 0.01fF
C182 w_n1809_n797# a_503_n597# 0.23fF
C183 w_n1809_n797# a_661_n597# 0.22fF
C184 a_n661_n500# a_n29_n500# 0.11fF
C185 a_445_n500# a_n503_n500# 0.07fF
C186 a_445_n500# a_761_n500# 0.24fF
C187 a_1135_n597# a_819_n597# 0.04fF
C188 a_n661_n500# a_287_n500# 0.07fF
C189 a_n603_n597# a_345_n597# 0.01fF
C190 a_345_n597# a_819_n597# 0.02fF
C191 a_n503_n500# a_n1293_n500# 0.09fF
C192 a_n345_n500# a_n1451_n500# 0.06fF
C193 a_n29_n500# a_1235_n500# 0.05fF
C194 a_n187_n500# a_1393_n500# 0.04fF
C195 a_129_n500# a_1551_n500# 0.05fF
C196 a_1135_n597# a_187_n597# 0.01fF
C197 a_1135_n597# a_1293_n597# 0.12fF
C198 a_n603_n597# a_n287_n597# 0.04fF
C199 a_n287_n597# a_819_n597# 0.01fF
C200 a_919_n500# a_1077_n500# 0.56fF
C201 a_n819_n500# a_129_n500# 0.07fF
C202 a_187_n597# a_345_n597# 0.12fF
C203 a_1293_n597# a_345_n597# 0.01fF
C204 a_n345_n500# a_919_n500# 0.05fF
C205 a_287_n500# a_1235_n500# 0.07fF
C206 a_n919_n597# a_n445_n597# 0.02fF
C207 a_n1451_n500# a_n1609_n500# 0.56fF
C208 a_n761_n597# a_345_n597# 0.01fF
C209 a_n603_n597# a_n1077_n597# 0.02fF
C210 a_445_n500# a_n661_n500# 0.06fF
C211 a_1293_n597# a_n287_n597# 0.01fF
C212 a_n287_n597# a_187_n597# 0.02fF
C213 a_1135_n597# a_29_n597# 0.01fF
C214 a_603_n500# a_1393_n500# 0.09fF
C215 w_n1809_n797# a_129_n500# 0.04fF
C216 a_n345_n500# a_n977_n500# 0.11fF
C217 a_n1135_n500# a_n1451_n500# 0.24fF
C218 a_n503_n500# a_761_n500# 0.05fF
C219 a_29_n597# a_345_n597# 0.04fF
C220 a_n761_n597# a_n287_n597# 0.02fF
C221 a_n661_n500# a_n1293_n500# 0.11fF
C222 a_187_n597# a_n1077_n597# 0.01fF
C223 a_n187_n500# a_n29_n500# 0.56fF
C224 a_n1235_n597# a_n603_n597# 0.02fF
C225 a_445_n500# a_1235_n500# 0.09fF
C226 a_29_n597# a_n287_n597# 0.04fF
C227 a_n761_n597# a_n1077_n597# 0.04fF
C228 a_n977_n500# a_n1609_n500# 0.11fF
C229 a_287_n500# a_n187_n500# 0.15fF
C230 a_n603_n597# a_503_n597# 0.01fF
C231 a_503_n597# a_819_n597# 0.04fF
C232 a_n603_n597# a_661_n597# 0.01fF
C233 a_819_n597# a_661_n597# 0.12fF
C234 a_1077_n500# a_1551_n500# 0.15fF
C235 a_29_n597# a_n1077_n597# 0.01fF
C236 a_n129_n597# a_977_n597# 0.01fF
C237 a_n1135_n500# a_n977_n500# 0.56fF
C238 w_n1809_n797# a_n603_n597# 0.24fF
C239 w_n1809_n797# a_819_n597# 0.21fF
C240 a_n1235_n597# a_187_n597# 0.01fF
C241 a_603_n500# a_n29_n500# 0.11fF
C242 a_n345_n500# a_n819_n500# 0.15fF
C243 a_n503_n500# a_n661_n500# 0.56fF
C244 a_1293_n597# a_503_n597# 0.01fF
C245 a_503_n597# a_187_n597# 0.04fF
C246 a_n661_n500# a_761_n500# 0.05fF
C247 a_n761_n597# a_n1235_n597# 0.02fF
C248 a_187_n597# a_661_n597# 0.02fF
C249 a_1293_n597# a_661_n597# 0.02fF
C250 a_603_n500# a_287_n500# 0.24fF
C251 a_919_n500# a_1393_n500# 0.15fF
C252 a_n761_n597# a_503_n597# 0.01fF
C253 w_n1809_n797# a_187_n597# 0.24fF
C254 w_n1809_n797# a_1293_n597# 0.19fF
C255 a_n761_n597# a_661_n597# 0.01fF
C256 a_445_n500# a_n187_n500# 0.11fF
C257 w_n1809_n797# a_1077_n500# 0.07fF
C258 a_n1235_n597# a_29_n597# 0.01fF
C259 w_n1809_n797# a_n345_n500# 0.04fF
C260 a_n819_n500# a_n1609_n500# 0.09fF
C261 w_n1809_n797# a_n761_n597# 0.24fF
C262 a_29_n597# a_503_n597# 0.02fF
C263 a_29_n597# a_661_n597# 0.02fF
C264 a_761_n500# a_1235_n500# 0.15fF
C265 a_n1293_n500# a_n187_n500# 0.06fF
C266 a_n1451_n500# a_n29_n500# 0.05fF
C267 a_n819_n500# a_n1135_n500# 0.24fF
C268 w_n1809_n797# a_29_n597# 0.24fF
C269 w_n1809_n797# a_n1609_n500# 0.30fF
C270 a_445_n500# a_603_n500# 0.56fF
C271 a_919_n500# a_n29_n500# 0.07fF
C272 a_1135_n597# a_n129_n597# 0.01fF
C273 w_n1809_n797# a_n1135_n500# 0.07fF
C274 a_n129_n597# a_345_n597# 0.02fF