* NGSPICE file created from analog_top_v2.ext - technology: sky130A

.subckt sky130_fd_pr__nfet_g5v0d10v5_BRTJC6 a_n345_n500# a_1135_n588# a_n603_n588#
+ a_n1393_n588# a_n1609_n500# a_661_n588# a_n1135_n500# a_n977_n500# a_1293_n588#
+ a_n761_n588# a_n503_n500# a_n1551_n588# a_129_n500# a_n1293_n500# a_287_n500# a_n661_n500#
+ a_1451_n588# a_n1451_n500# a_919_n500# a_445_n500# a_1077_n500# a_29_n588# a_n129_n588#
+ a_603_n500# a_187_n588# a_1235_n500# a_n287_n588# a_761_n500# a_819_n588# a_345_n588#
+ a_n1077_n588# a_n29_n500# a_1393_n500# a_n919_n588# a_n1743_n722# a_n187_n500# a_977_n588#
+ a_n445_n588# a_503_n588# a_n1235_n588# a_1551_n500# a_n819_n500#
X0 a_n819_n500# a_n919_n588# a_n977_n500# a_n1743_n722# sky130_fd_pr__nfet_g5v0d10v5 ad=1.45e+12p pd=1.058e+07u as=1.45e+12p ps=1.058e+07u w=5e+06u l=500000u
X1 a_n661_n500# a_n761_n588# a_n819_n500# a_n1743_n722# sky130_fd_pr__nfet_g5v0d10v5 ad=1.45e+12p pd=1.058e+07u as=0p ps=0u w=5e+06u l=500000u
X2 a_919_n500# a_819_n588# a_761_n500# a_n1743_n722# sky130_fd_pr__nfet_g5v0d10v5 ad=1.45e+12p pd=1.058e+07u as=1.45e+12p ps=1.058e+07u w=5e+06u l=500000u
X3 a_n187_n500# a_n287_n588# a_n345_n500# a_n1743_n722# sky130_fd_pr__nfet_g5v0d10v5 ad=1.45e+12p pd=1.058e+07u as=1.45e+12p ps=1.058e+07u w=5e+06u l=500000u
X4 a_761_n500# a_661_n588# a_603_n500# a_n1743_n722# sky130_fd_pr__nfet_g5v0d10v5 ad=0p pd=0u as=1.45e+12p ps=1.058e+07u w=5e+06u l=500000u
X5 a_287_n500# a_187_n588# a_129_n500# a_n1743_n722# sky130_fd_pr__nfet_g5v0d10v5 ad=1.45e+12p pd=1.058e+07u as=1.45e+12p ps=1.058e+07u w=5e+06u l=500000u
X6 a_n1293_n500# a_n1393_n588# a_n1451_n500# a_n1743_n722# sky130_fd_pr__nfet_g5v0d10v5 ad=1.45e+12p pd=1.058e+07u as=1.45e+12p ps=1.058e+07u w=5e+06u l=500000u
X7 a_1393_n500# a_1293_n588# a_1235_n500# a_n1743_n722# sky130_fd_pr__nfet_g5v0d10v5 ad=1.45e+12p pd=1.058e+07u as=1.45e+12p ps=1.058e+07u w=5e+06u l=500000u
X8 a_n345_n500# a_n445_n588# a_n503_n500# a_n1743_n722# sky130_fd_pr__nfet_g5v0d10v5 ad=0p pd=0u as=1.45e+12p ps=1.058e+07u w=5e+06u l=500000u
X9 a_129_n500# a_29_n588# a_n29_n500# a_n1743_n722# sky130_fd_pr__nfet_g5v0d10v5 ad=0p pd=0u as=1.45e+12p ps=1.058e+07u w=5e+06u l=500000u
X10 a_445_n500# a_345_n588# a_287_n500# a_n1743_n722# sky130_fd_pr__nfet_g5v0d10v5 ad=1.45e+12p pd=1.058e+07u as=0p ps=0u w=5e+06u l=500000u
X11 a_n1451_n500# a_n1551_n588# a_n1609_n500# a_n1743_n722# sky130_fd_pr__nfet_g5v0d10v5 ad=0p pd=0u as=1.45e+12p ps=1.058e+07u w=5e+06u l=500000u
X12 a_1551_n500# a_1451_n588# a_1393_n500# a_n1743_n722# sky130_fd_pr__nfet_g5v0d10v5 ad=1.45e+12p pd=1.058e+07u as=0p ps=0u w=5e+06u l=500000u
X13 a_n977_n500# a_n1077_n588# a_n1135_n500# a_n1743_n722# sky130_fd_pr__nfet_g5v0d10v5 ad=0p pd=0u as=1.45e+12p ps=1.058e+07u w=5e+06u l=500000u
X14 a_n503_n500# a_n603_n588# a_n661_n500# a_n1743_n722# sky130_fd_pr__nfet_g5v0d10v5 ad=0p pd=0u as=0p ps=0u w=5e+06u l=500000u
X15 a_1077_n500# a_977_n588# a_919_n500# a_n1743_n722# sky130_fd_pr__nfet_g5v0d10v5 ad=1.45e+12p pd=1.058e+07u as=0p ps=0u w=5e+06u l=500000u
X16 a_n29_n500# a_n129_n588# a_n187_n500# a_n1743_n722# sky130_fd_pr__nfet_g5v0d10v5 ad=0p pd=0u as=0p ps=0u w=5e+06u l=500000u
X17 a_603_n500# a_503_n588# a_445_n500# a_n1743_n722# sky130_fd_pr__nfet_g5v0d10v5 ad=0p pd=0u as=0p ps=0u w=5e+06u l=500000u
X18 a_n1135_n500# a_n1235_n588# a_n1293_n500# a_n1743_n722# sky130_fd_pr__nfet_g5v0d10v5 ad=0p pd=0u as=0p ps=0u w=5e+06u l=500000u
X19 a_1235_n500# a_1135_n588# a_1077_n500# a_n1743_n722# sky130_fd_pr__nfet_g5v0d10v5 ad=0p pd=0u as=0p ps=0u w=5e+06u l=500000u
C0 a_503_n588# a_1135_n588# 0.02fF
C1 a_n977_n500# a_n345_n500# 0.11fF
C2 a_1077_n500# a_1235_n500# 0.56fF
C3 a_977_n588# a_1451_n588# 0.02fF
C4 a_n1135_n500# a_n977_n500# 0.56fF
C5 a_n761_n588# a_n1393_n588# 0.02fF
C6 a_761_n500# a_129_n500# 0.11fF
C7 a_n1135_n500# a_n345_n500# 0.09fF
C8 a_603_n500# a_n29_n500# 0.11fF
C9 a_1235_n500# a_761_n500# 0.15fF
C10 a_187_n588# a_977_n588# 0.01fF
C11 a_n761_n588# a_819_n588# 0.01fF
C12 a_187_n588# a_n919_n588# 0.01fF
C13 a_n603_n588# a_n1077_n588# 0.02fF
C14 a_445_n500# a_n29_n500# 0.15fF
C15 a_n761_n588# a_n1551_n588# 0.01fF
C16 a_345_n588# a_977_n588# 0.02fF
C17 a_345_n588# a_n919_n588# 0.01fF
C18 a_n977_n500# a_n819_n500# 0.56fF
C19 a_n287_n588# a_n1393_n588# 0.01fF
C20 a_n761_n588# a_n445_n588# 0.04fF
C21 a_n661_n500# a_n503_n500# 0.56fF
C22 a_n819_n500# a_n345_n500# 0.15fF
C23 a_n129_n588# a_1451_n588# 0.01fF
C24 a_n287_n588# a_819_n588# 0.01fF
C25 a_n1135_n500# a_n819_n500# 0.24fF
C26 a_29_n588# a_n1077_n588# 0.01fF
C27 a_n661_n500# a_n1293_n500# 0.11fF
C28 a_n1551_n588# a_n287_n588# 0.01fF
C29 a_29_n588# a_n603_n588# 0.02fF
C30 a_1293_n588# a_29_n588# 0.01fF
C31 a_n129_n588# a_187_n588# 0.04fF
C32 a_661_n588# a_n603_n588# 0.01fF
C33 a_603_n500# a_1393_n500# 0.09fF
C34 a_1293_n588# a_661_n588# 0.02fF
C35 a_n661_n500# a_n1451_n500# 0.09fF
C36 a_n445_n588# a_n287_n588# 0.12fF
C37 a_445_n500# a_1393_n500# 0.07fF
C38 a_n129_n588# a_345_n588# 0.02fF
C39 a_n29_n500# a_n661_n500# 0.11fF
C40 a_n187_n500# a_n503_n500# 0.24fF
C41 a_661_n588# a_29_n588# 0.02fF
C42 a_603_n500# a_919_n500# 0.24fF
C43 a_n977_n500# a_287_n500# 0.05fF
C44 a_n503_n500# a_n1609_n500# 0.06fF
C45 a_1135_n588# a_819_n588# 0.04fF
C46 a_n187_n500# a_n1293_n500# 0.06fF
C47 a_287_n500# a_n345_n500# 0.11fF
C48 a_445_n500# a_919_n500# 0.15fF
C49 a_n1135_n500# a_287_n500# 0.05fF
C50 a_n1609_n500# a_n1293_n500# 0.24fF
C51 a_n187_n500# a_n1451_n500# 0.05fF
C52 a_n761_n588# a_187_n588# 0.01fF
C53 a_n1609_n500# a_n1451_n500# 0.56fF
C54 a_n445_n588# a_1135_n588# 0.01fF
C55 a_n1235_n588# a_n1077_n588# 0.12fF
C56 a_n187_n500# a_n29_n500# 0.56fF
C57 a_n1235_n588# a_n603_n588# 0.02fF
C58 a_129_n500# a_n503_n500# 0.11fF
C59 a_n29_n500# a_n1609_n500# 0.04fF
C60 a_n761_n588# a_345_n588# 0.01fF
C61 a_1077_n500# a_n345_n500# 0.05fF
C62 a_287_n500# a_n819_n500# 0.06fF
C63 a_129_n500# a_n1293_n500# 0.05fF
C64 a_n287_n588# a_187_n588# 0.02fF
C65 a_129_n500# a_n1451_n500# 0.04fF
C66 a_761_n500# a_n345_n500# 0.06fF
C67 a_29_n588# a_n1235_n588# 0.01fF
C68 a_503_n588# a_819_n588# 0.04fF
C69 a_1551_n500# a_287_n500# 0.05fF
C70 a_n287_n588# a_345_n588# 0.02fF
C71 a_919_n500# a_n661_n500# 0.04fF
C72 a_n29_n500# a_129_n500# 0.56fF
C73 a_1235_n500# a_n29_n500# 0.05fF
C74 a_1393_n500# a_n187_n500# 0.04fF
C75 a_n919_n588# a_n1077_n588# 0.12fF
C76 a_445_n500# a_603_n500# 0.56fF
C77 a_1135_n588# a_1451_n588# 0.04fF
C78 a_n603_n588# a_977_n588# 0.01fF
C79 a_n919_n588# a_n603_n588# 0.04fF
C80 a_1293_n588# a_977_n588# 0.04fF
C81 a_503_n588# a_n445_n588# 0.01fF
C82 a_761_n500# a_n819_n500# 0.04fF
C83 a_1135_n588# a_187_n588# 0.01fF
C84 a_1077_n500# a_1551_n500# 0.15fF
C85 a_919_n500# a_n187_n500# 0.06fF
C86 a_29_n588# a_977_n588# 0.01fF
C87 a_1135_n588# a_345_n588# 0.01fF
C88 a_29_n588# a_n919_n588# 0.01fF
C89 a_761_n500# a_1551_n500# 0.09fF
C90 a_661_n588# a_977_n588# 0.04fF
C91 a_661_n588# a_n919_n588# 0.01fF
C92 a_1393_n500# a_129_n500# 0.05fF
C93 a_n129_n588# a_n1077_n588# 0.01fF
C94 a_n129_n588# a_n603_n588# 0.02fF
C95 a_1235_n500# a_1393_n500# 0.56fF
C96 a_1293_n588# a_n129_n588# 0.01fF
C97 a_1077_n500# a_287_n500# 0.09fF
C98 a_603_n500# a_n661_n500# 0.05fF
C99 a_445_n500# a_n661_n500# 0.06fF
C100 a_503_n588# a_1451_n588# 0.01fF
C101 a_761_n500# a_287_n500# 0.15fF
C102 a_919_n500# a_129_n500# 0.09fF
C103 a_29_n588# a_n129_n588# 0.12fF
C104 a_1235_n500# a_919_n500# 0.24fF
C105 a_n1551_n588# a_n1393_n588# 0.12fF
C106 a_661_n588# a_n129_n588# 0.01fF
C107 a_503_n588# a_187_n588# 0.04fF
C108 a_n977_n500# a_n503_n500# 0.15fF
C109 a_n445_n588# a_n1393_n588# 0.01fF
C110 a_n503_n500# a_n345_n500# 0.56fF
C111 a_n761_n588# a_n1077_n588# 0.04fF
C112 a_503_n588# a_345_n588# 0.12fF
C113 a_n1135_n500# a_n503_n500# 0.11fF
C114 a_603_n500# a_n187_n500# 0.09fF
C115 a_n977_n500# a_n1293_n500# 0.24fF
C116 a_n761_n588# a_n603_n588# 0.12fF
C117 a_n445_n588# a_819_n588# 0.01fF
C118 a_n1235_n588# a_n919_n588# 0.04fF
C119 a_1077_n500# a_761_n500# 0.24fF
C120 a_n345_n500# a_n1293_n500# 0.07fF
C121 a_n445_n588# a_n1551_n588# 0.01fF
C122 a_n1135_n500# a_n1293_n500# 0.56fF
C123 a_n977_n500# a_n1451_n500# 0.15fF
C124 a_445_n500# a_n187_n500# 0.11fF
C125 a_n345_n500# a_n1451_n500# 0.06fF
C126 a_n1135_n500# a_n1451_n500# 0.24fF
C127 a_n287_n588# a_n1077_n588# 0.01fF
C128 a_n977_n500# a_n29_n500# 0.07fF
C129 a_n761_n588# a_29_n588# 0.01fF
C130 a_n287_n588# a_n603_n588# 0.04fF
C131 a_n819_n500# a_n503_n500# 0.24fF
C132 a_n29_n500# a_n345_n500# 0.24fF
C133 a_1293_n588# a_n287_n588# 0.01fF
C134 a_n1135_n500# a_n29_n500# 0.06fF
C135 a_n761_n588# a_661_n588# 0.01fF
C136 a_603_n500# a_129_n500# 0.15fF
C137 a_n819_n500# a_n1293_n500# 0.15fF
C138 a_n1235_n588# a_n129_n588# 0.01fF
C139 a_603_n500# a_1235_n500# 0.11fF
C140 a_445_n500# a_129_n500# 0.24fF
C141 a_n819_n500# a_n1451_n500# 0.11fF
C142 a_29_n588# a_n287_n588# 0.04fF
C143 a_445_n500# a_1235_n500# 0.09fF
C144 a_819_n588# a_1451_n588# 0.02fF
C145 a_661_n588# a_n287_n588# 0.01fF
C146 a_n1393_n588# a_187_n588# 0.01fF
C147 a_n187_n500# a_n661_n500# 0.15fF
C148 a_n29_n500# a_n819_n500# 0.09fF
C149 a_n661_n500# a_n1609_n500# 0.07fF
C150 a_819_n588# a_187_n588# 0.02fF
C151 a_1293_n588# a_1135_n588# 0.12fF
C152 a_287_n500# a_n503_n500# 0.09fF
C153 a_1551_n500# a_n29_n500# 0.04fF
C154 a_819_n588# a_345_n588# 0.02fF
C155 a_n129_n588# a_977_n588# 0.01fF
C156 a_n129_n588# a_n919_n588# 0.01fF
C157 a_n445_n588# a_187_n588# 0.02fF
C158 a_n761_n588# a_n1235_n588# 0.02fF
C159 a_287_n500# a_n1293_n500# 0.04fF
C160 a_29_n588# a_1135_n588# 0.01fF
C161 a_129_n500# a_n661_n500# 0.09fF
C162 a_919_n500# a_n345_n500# 0.05fF
C163 a_661_n588# a_1135_n588# 0.02fF
C164 a_n445_n588# a_345_n588# 0.01fF
C165 a_n187_n500# a_n1609_n500# 0.05fF
C166 a_1077_n500# a_n503_n500# 0.04fF
C167 a_n29_n500# a_287_n500# 0.24fF
C168 a_n287_n588# a_n1235_n588# 0.01fF
C169 a_503_n588# a_n1077_n588# 0.01fF
C170 a_761_n500# a_n503_n500# 0.05fF
C171 a_1393_n500# a_1551_n500# 0.56fF
C172 a_503_n588# a_n603_n588# 0.01fF
C173 a_1293_n588# a_503_n588# 0.01fF
C174 a_n187_n500# a_129_n500# 0.24fF
C175 a_n761_n588# a_n919_n588# 0.12fF
C176 a_1235_n500# a_n187_n500# 0.05fF
C177 a_1077_n500# a_n29_n500# 0.06fF
C178 a_187_n588# a_1451_n588# 0.01fF
C179 a_919_n500# a_1551_n500# 0.11fF
C180 a_503_n588# a_29_n588# 0.02fF
C181 a_1393_n500# a_287_n500# 0.06fF
C182 a_761_n500# a_n29_n500# 0.09fF
C183 a_345_n588# a_1451_n588# 0.01fF
C184 a_503_n588# a_661_n588# 0.12fF
C185 a_603_n500# a_n977_n500# 0.04fF
C186 a_n287_n588# a_977_n588# 0.01fF
C187 a_n287_n588# a_n919_n588# 0.02fF
C188 a_603_n500# a_n345_n500# 0.07fF
C189 a_445_n500# a_n977_n500# 0.05fF
C190 a_187_n588# a_345_n588# 0.12fF
C191 a_445_n500# a_n345_n500# 0.09fF
C192 a_n761_n588# a_n129_n588# 0.02fF
C193 a_445_n500# a_n1135_n500# 0.04fF
C194 a_1235_n500# a_129_n500# 0.06fF
C195 a_919_n500# a_287_n500# 0.11fF
C196 a_1077_n500# a_1393_n500# 0.24fF
C197 a_603_n500# a_n819_n500# 0.05fF
C198 a_n1393_n588# a_n1077_n588# 0.04fF
C199 a_n287_n588# a_n129_n588# 0.12fF
C200 a_1393_n500# a_761_n500# 0.11fF
C201 a_n1393_n588# a_n603_n588# 0.01fF
C202 a_1135_n588# a_977_n588# 0.12fF
C203 a_445_n500# a_n819_n500# 0.05fF
C204 a_819_n588# a_n603_n588# 0.01fF
C205 a_1077_n500# a_919_n500# 0.56fF
C206 a_n1551_n588# a_n1077_n588# 0.02fF
C207 a_1293_n588# a_819_n588# 0.02fF
C208 a_603_n500# a_1551_n500# 0.07fF
C209 a_n977_n500# a_n661_n500# 0.24fF
C210 a_n1551_n588# a_n603_n588# 0.01fF
C211 a_n661_n500# a_n345_n500# 0.24fF
C212 a_445_n500# a_1551_n500# 0.06fF
C213 a_n1135_n500# a_n661_n500# 0.15fF
C214 a_761_n500# a_919_n500# 0.56fF
C215 a_n445_n588# a_n1077_n588# 0.02fF
C216 a_29_n588# a_n1393_n588# 0.01fF
C217 a_n445_n588# a_n603_n588# 0.12fF
C218 a_29_n588# a_819_n588# 0.01fF
C219 a_n503_n500# a_n1293_n500# 0.09fF
C220 a_1135_n588# a_n129_n588# 0.01fF
C221 a_661_n588# a_819_n588# 0.12fF
C222 a_29_n588# a_n1551_n588# 0.01fF
C223 a_603_n500# a_287_n500# 0.24fF
C224 a_n503_n500# a_n1451_n500# 0.07fF
C225 a_n761_n588# a_n287_n588# 0.02fF
C226 a_n819_n500# a_n661_n500# 0.56fF
C227 a_n977_n500# a_n187_n500# 0.09fF
C228 a_445_n500# a_287_n500# 0.56fF
C229 a_n445_n588# a_29_n588# 0.02fF
C230 a_n1451_n500# a_n1293_n500# 0.56fF
C231 a_n29_n500# a_n503_n500# 0.15fF
C232 a_503_n588# a_977_n588# 0.02fF
C233 a_n187_n500# a_n345_n500# 0.56fF
C234 a_503_n588# a_n919_n588# 0.01fF
C235 a_n445_n588# a_661_n588# 0.01fF
C236 a_n977_n500# a_n1609_n500# 0.11fF
C237 a_n1135_n500# a_n187_n500# 0.07fF
C238 a_n345_n500# a_n1609_n500# 0.05fF
C239 a_n1135_n500# a_n1609_n500# 0.15fF
C240 a_n29_n500# a_n1293_n500# 0.05fF
C241 a_603_n500# a_1077_n500# 0.15fF
C242 a_n29_n500# a_n1451_n500# 0.05fF
C243 a_445_n500# a_1077_n500# 0.11fF
C244 a_1293_n588# a_1451_n588# 0.12fF
C245 a_n1393_n588# a_n1235_n588# 0.12fF
C246 a_603_n500# a_761_n500# 0.56fF
C247 a_n977_n500# a_129_n500# 0.06fF
C248 a_187_n588# a_n1077_n588# 0.01fF
C249 a_n187_n500# a_n819_n500# 0.11fF
C250 a_503_n588# a_n129_n588# 0.02fF
C251 a_129_n500# a_n345_n500# 0.15fF
C252 a_187_n588# a_n603_n588# 0.01fF
C253 a_n819_n500# a_n1609_n500# 0.09fF
C254 a_445_n500# a_761_n500# 0.24fF
C255 a_n1135_n500# a_129_n500# 0.05fF
C256 a_1293_n588# a_187_n588# 0.01fF
C257 a_1235_n500# a_n345_n500# 0.04fF
C258 a_287_n500# a_n661_n500# 0.07fF
C259 a_345_n588# a_n1077_n588# 0.01fF
C260 a_n1551_n588# a_n1235_n588# 0.04fF
C261 a_29_n588# a_1451_n588# 0.01fF
C262 a_345_n588# a_n603_n588# 0.01fF
C263 a_1293_n588# a_345_n588# 0.01fF
C264 a_661_n588# a_1451_n588# 0.01fF
C265 a_1135_n588# a_n287_n588# 0.01fF
C266 a_n445_n588# a_n1235_n588# 0.01fF
C267 a_29_n588# a_187_n588# 0.12fF
C268 a_661_n588# a_187_n588# 0.02fF
C269 a_129_n500# a_n819_n500# 0.07fF
C270 a_919_n500# a_n503_n500# 0.05fF
C271 a_29_n588# a_345_n588# 0.04fF
C272 a_1393_n500# a_n29_n500# 0.05fF
C273 a_n1393_n588# a_n919_n588# 0.02fF
C274 a_661_n588# a_345_n588# 0.04fF
C275 a_n187_n500# a_287_n500# 0.15fF
C276 a_819_n588# a_977_n588# 0.12fF
C277 a_n761_n588# a_503_n588# 0.01fF
C278 a_1551_n500# a_129_n500# 0.05fF
C279 a_761_n500# a_n661_n500# 0.05fF
C280 a_n1551_n588# a_n919_n588# 0.02fF
C281 a_1235_n500# a_1551_n500# 0.24fF
C282 a_919_n500# a_n29_n500# 0.07fF
C283 a_n445_n588# a_977_n588# 0.01fF
C284 a_n445_n588# a_n919_n588# 0.02fF
C285 a_n1393_n588# a_n129_n588# 0.01fF
C286 a_503_n588# a_n287_n588# 0.01fF
C287 a_1077_n500# a_n187_n500# 0.05fF
C288 a_129_n500# a_287_n500# 0.56fF
C289 a_819_n588# a_n129_n588# 0.01fF
C290 a_n1235_n588# a_187_n588# 0.01fF
C291 a_1235_n500# a_287_n500# 0.07fF
C292 a_761_n500# a_n187_n500# 0.07fF
C293 a_n1551_n588# a_n129_n588# 0.01fF
C294 a_603_n500# a_n503_n500# 0.06fF
C295 a_n1235_n588# a_345_n588# 0.01fF
C296 a_n445_n588# a_n129_n588# 0.04fF
C297 a_445_n500# a_n503_n500# 0.07fF
C298 a_1393_n500# a_919_n500# 0.15fF
C299 a_1077_n500# a_129_n500# 0.07fF
C300 a_1551_n500# a_n1743_n722# 0.30fF
C301 a_1393_n500# a_n1743_n722# 0.13fF
C302 a_1235_n500# a_n1743_n722# 0.09fF
C303 a_1077_n500# a_n1743_n722# 0.07fF
C304 a_919_n500# a_n1743_n722# 0.06fF
C305 a_761_n500# a_n1743_n722# 0.05fF
C306 a_603_n500# a_n1743_n722# 0.05fF
C307 a_445_n500# a_n1743_n722# 0.04fF
C308 a_287_n500# a_n1743_n722# 0.04fF
C309 a_129_n500# a_n1743_n722# 0.04fF
C310 a_n29_n500# a_n1743_n722# 0.02fF
C311 a_n187_n500# a_n1743_n722# 0.04fF
C312 a_n345_n500# a_n1743_n722# 0.04fF
C313 a_n503_n500# a_n1743_n722# 0.04fF
C314 a_n661_n500# a_n1743_n722# 0.05fF
C315 a_n819_n500# a_n1743_n722# 0.05fF
C316 a_n977_n500# a_n1743_n722# 0.06fF
C317 a_n1135_n500# a_n1743_n722# 0.07fF
C318 a_n1293_n500# a_n1743_n722# 0.09fF
C319 a_n1451_n500# a_n1743_n722# 0.13fF
C320 a_n1609_n500# a_n1743_n722# 0.30fF
C321 a_1451_n588# a_n1743_n722# 0.28fF
C322 a_1293_n588# a_n1743_n722# 0.23fF
C323 a_1135_n588# a_n1743_n722# 0.24fF
C324 a_977_n588# a_n1743_n722# 0.25fF
C325 a_819_n588# a_n1743_n722# 0.26fF
C326 a_661_n588# a_n1743_n722# 0.26fF
C327 a_503_n588# a_n1743_n722# 0.27fF
C328 a_345_n588# a_n1743_n722# 0.28fF
C329 a_187_n588# a_n1743_n722# 0.28fF
C330 a_29_n588# a_n1743_n722# 0.28fF
C331 a_n129_n588# a_n1743_n722# 0.28fF
C332 a_n287_n588# a_n1743_n722# 0.28fF
C333 a_n445_n588# a_n1743_n722# 0.28fF
C334 a_n603_n588# a_n1743_n722# 0.28fF
C335 a_n761_n588# a_n1743_n722# 0.28fF
C336 a_n919_n588# a_n1743_n722# 0.28fF
C337 a_n1077_n588# a_n1743_n722# 0.28fF
C338 a_n1235_n588# a_n1743_n722# 0.29fF
C339 a_n1393_n588# a_n1743_n722# 0.29fF
C340 a_n1551_n588# a_n1743_n722# 0.34fF
.ends

.subckt sky130_fd_pr__pfet_g5v0d10v5_CADZ46 a_n345_n500# a_n1609_n500# a_n1135_n500#
+ a_29_n597# a_n977_n500# a_n129_n597# a_187_n597# a_n503_n500# a_129_n500# a_n1293_n500#
+ a_n287_n597# a_819_n597# a_n1077_n597# a_287_n500# a_n661_n500# a_345_n597# a_n919_n597#
+ a_n1451_n500# a_977_n597# a_n445_n597# a_919_n500# a_n1235_n597# a_445_n500# a_503_n597#
+ w_n1809_n797# a_n603_n597# a_1077_n500# a_1135_n597# a_661_n597# a_n1393_n597# a_603_n500#
+ a_1293_n597# a_n761_n597# a_1235_n500# a_n1551_n597# a_761_n500# a_n29_n500# a_1451_n597#
+ a_1393_n500# a_n187_n500# a_1551_n500# a_n819_n500# VSUBS
X0 a_n819_n500# a_n919_n597# a_n977_n500# w_n1809_n797# sky130_fd_pr__pfet_g5v0d10v5 ad=1.45e+12p pd=1.058e+07u as=1.45e+12p ps=1.058e+07u w=5e+06u l=500000u
X1 a_n661_n500# a_n761_n597# a_n819_n500# w_n1809_n797# sky130_fd_pr__pfet_g5v0d10v5 ad=1.45e+12p pd=1.058e+07u as=0p ps=0u w=5e+06u l=500000u
X2 a_919_n500# a_819_n597# a_761_n500# w_n1809_n797# sky130_fd_pr__pfet_g5v0d10v5 ad=1.45e+12p pd=1.058e+07u as=1.45e+12p ps=1.058e+07u w=5e+06u l=500000u
X3 a_n187_n500# a_n287_n597# a_n345_n500# w_n1809_n797# sky130_fd_pr__pfet_g5v0d10v5 ad=1.45e+12p pd=1.058e+07u as=1.45e+12p ps=1.058e+07u w=5e+06u l=500000u
X4 a_761_n500# a_661_n597# a_603_n500# w_n1809_n797# sky130_fd_pr__pfet_g5v0d10v5 ad=0p pd=0u as=1.45e+12p ps=1.058e+07u w=5e+06u l=500000u
X5 a_287_n500# a_187_n597# a_129_n500# w_n1809_n797# sky130_fd_pr__pfet_g5v0d10v5 ad=1.45e+12p pd=1.058e+07u as=1.45e+12p ps=1.058e+07u w=5e+06u l=500000u
X6 a_n1293_n500# a_n1393_n597# a_n1451_n500# w_n1809_n797# sky130_fd_pr__pfet_g5v0d10v5 ad=1.45e+12p pd=1.058e+07u as=1.45e+12p ps=1.058e+07u w=5e+06u l=500000u
X7 a_1393_n500# a_1293_n597# a_1235_n500# w_n1809_n797# sky130_fd_pr__pfet_g5v0d10v5 ad=1.45e+12p pd=1.058e+07u as=1.45e+12p ps=1.058e+07u w=5e+06u l=500000u
X8 a_n345_n500# a_n445_n597# a_n503_n500# w_n1809_n797# sky130_fd_pr__pfet_g5v0d10v5 ad=0p pd=0u as=1.45e+12p ps=1.058e+07u w=5e+06u l=500000u
X9 a_129_n500# a_29_n597# a_n29_n500# w_n1809_n797# sky130_fd_pr__pfet_g5v0d10v5 ad=0p pd=0u as=1.45e+12p ps=1.058e+07u w=5e+06u l=500000u
X10 a_445_n500# a_345_n597# a_287_n500# w_n1809_n797# sky130_fd_pr__pfet_g5v0d10v5 ad=1.45e+12p pd=1.058e+07u as=0p ps=0u w=5e+06u l=500000u
X11 a_n1451_n500# a_n1551_n597# a_n1609_n500# w_n1809_n797# sky130_fd_pr__pfet_g5v0d10v5 ad=0p pd=0u as=1.45e+12p ps=1.058e+07u w=5e+06u l=500000u
X12 a_1551_n500# a_1451_n597# a_1393_n500# w_n1809_n797# sky130_fd_pr__pfet_g5v0d10v5 ad=1.45e+12p pd=1.058e+07u as=0p ps=0u w=5e+06u l=500000u
X13 a_n977_n500# a_n1077_n597# a_n1135_n500# w_n1809_n797# sky130_fd_pr__pfet_g5v0d10v5 ad=0p pd=0u as=1.45e+12p ps=1.058e+07u w=5e+06u l=500000u
X14 a_1077_n500# a_977_n597# a_919_n500# w_n1809_n797# sky130_fd_pr__pfet_g5v0d10v5 ad=1.45e+12p pd=1.058e+07u as=0p ps=0u w=5e+06u l=500000u
X15 a_n503_n500# a_n603_n597# a_n661_n500# w_n1809_n797# sky130_fd_pr__pfet_g5v0d10v5 ad=0p pd=0u as=0p ps=0u w=5e+06u l=500000u
X16 a_n29_n500# a_n129_n597# a_n187_n500# w_n1809_n797# sky130_fd_pr__pfet_g5v0d10v5 ad=0p pd=0u as=0p ps=0u w=5e+06u l=500000u
X17 a_603_n500# a_503_n597# a_445_n500# w_n1809_n797# sky130_fd_pr__pfet_g5v0d10v5 ad=0p pd=0u as=0p ps=0u w=5e+06u l=500000u
X18 a_n1135_n500# a_n1235_n597# a_n1293_n500# w_n1809_n797# sky130_fd_pr__pfet_g5v0d10v5 ad=0p pd=0u as=0p ps=0u w=5e+06u l=500000u
X19 a_1235_n500# a_1135_n597# a_1077_n500# w_n1809_n797# sky130_fd_pr__pfet_g5v0d10v5 ad=0p pd=0u as=0p ps=0u w=5e+06u l=500000u
C0 w_n1809_n797# a_n1451_n500# 0.13fF
C1 a_n1293_n500# a_n819_n500# 0.15fF
C2 a_761_n500# a_n29_n500# 0.09fF
C3 a_n661_n500# a_n187_n500# 0.15fF
C4 a_919_n500# a_287_n500# 0.11fF
C5 a_29_n597# a_n603_n597# 0.02fF
C6 a_761_n500# a_1235_n500# 0.15fF
C7 a_603_n500# a_n29_n500# 0.11fF
C8 a_n603_n597# a_n1393_n597# 0.01fF
C9 a_603_n500# a_1235_n500# 0.11fF
C10 a_661_n597# a_n129_n597# 0.01fF
C11 a_29_n597# a_345_n597# 0.04fF
C12 a_n503_n500# a_n345_n500# 0.56fF
C13 a_287_n500# a_n661_n500# 0.07fF
C14 a_29_n597# a_n919_n597# 0.01fF
C15 a_n919_n597# a_n1393_n597# 0.02fF
C16 a_n1451_n500# a_n661_n500# 0.09fF
C17 a_1293_n597# a_345_n597# 0.01fF
C18 a_819_n597# a_n603_n597# 0.01fF
C19 a_29_n597# a_977_n597# 0.01fF
C20 a_n1135_n500# a_n29_n500# 0.06fF
C21 a_n1235_n597# a_n129_n597# 0.01fF
C22 a_1135_n597# a_n129_n597# 0.01fF
C23 a_819_n597# a_345_n597# 0.02fF
C24 a_761_n500# a_n819_n500# 0.04fF
C25 a_977_n597# a_1293_n597# 0.04fF
C26 a_1135_n597# a_661_n597# 0.02fF
C27 a_n977_n500# a_n345_n500# 0.11fF
C28 a_503_n597# a_1451_n597# 0.01fF
C29 a_603_n500# a_n819_n500# 0.05fF
C30 a_1551_n500# a_n29_n500# 0.04fF
C31 a_n345_n500# a_n1609_n500# 0.05fF
C32 a_n503_n500# a_n977_n500# 0.15fF
C33 a_n29_n500# a_129_n500# 0.56fF
C34 a_977_n597# a_819_n597# 0.12fF
C35 a_1235_n500# a_1551_n500# 0.24fF
C36 a_n503_n500# a_n1609_n500# 0.06fF
C37 a_1235_n500# a_129_n500# 0.06fF
C38 a_29_n597# a_n1551_n597# 0.01fF
C39 a_n1551_n597# a_n1393_n597# 0.12fF
C40 a_761_n500# a_1077_n500# 0.24fF
C41 a_n819_n500# a_n1135_n500# 0.24fF
C42 a_n977_n500# a_n1609_n500# 0.11fF
C43 a_n761_n597# a_n603_n597# 0.12fF
C44 a_603_n500# a_1077_n500# 0.15fF
C45 a_n345_n500# a_445_n500# 0.09fF
C46 a_n603_n597# a_n287_n597# 0.04fF
C47 a_187_n597# a_n129_n597# 0.04fF
C48 a_n503_n500# a_445_n500# 0.07fF
C49 a_29_n597# a_1451_n597# 0.01fF
C50 a_n761_n597# a_345_n597# 0.01fF
C51 a_187_n597# a_661_n597# 0.02fF
C52 a_n445_n597# a_n129_n597# 0.04fF
C53 a_n819_n500# a_129_n500# 0.07fF
C54 a_n761_n597# a_n919_n597# 0.12fF
C55 a_n287_n597# a_345_n597# 0.02fF
C56 a_n445_n597# a_661_n597# 0.01fF
C57 a_1293_n597# a_1451_n597# 0.12fF
C58 a_n187_n500# a_n29_n500# 0.56fF
C59 a_n919_n597# a_n287_n597# 0.02fF
C60 a_1393_n500# a_445_n500# 0.07fF
C61 a_1235_n500# a_n187_n500# 0.05fF
C62 w_n1809_n797# a_n129_n597# 0.24fF
C63 a_n345_n500# w_n1809_n797# 0.04fF
C64 a_819_n597# a_1451_n597# 0.02fF
C65 a_187_n597# a_n1235_n597# 0.01fF
C66 a_n977_n500# a_445_n500# 0.05fF
C67 w_n1809_n797# a_661_n597# 0.22fF
C68 a_977_n597# a_n287_n597# 0.01fF
C69 a_1135_n597# a_187_n597# 0.01fF
C70 a_n503_n500# w_n1809_n797# 0.04fF
C71 a_287_n500# a_n29_n500# 0.24fF
C72 a_n445_n597# a_n1235_n597# 0.01fF
C73 a_1135_n597# a_n445_n597# 0.01fF
C74 a_n345_n500# a_919_n500# 0.05fF
C75 a_1077_n500# a_1551_n500# 0.15fF
C76 a_n1451_n500# a_n29_n500# 0.05fF
C77 a_n1293_n500# a_n1135_n500# 0.56fF
C78 a_1235_n500# a_287_n500# 0.07fF
C79 a_1077_n500# a_129_n500# 0.07fF
C80 a_n503_n500# a_919_n500# 0.05fF
C81 w_n1809_n797# a_1393_n500# 0.13fF
C82 w_n1809_n797# a_n1235_n597# 0.24fF
C83 a_n345_n500# a_n661_n500# 0.24fF
C84 a_1135_n597# w_n1809_n797# 0.20fF
C85 a_n1077_n597# a_n129_n597# 0.01fF
C86 a_603_n500# a_761_n500# 0.56fF
C87 a_n761_n597# a_n1551_n597# 0.01fF
C88 a_n819_n500# a_n187_n500# 0.11fF
C89 a_n977_n500# w_n1809_n797# 0.06fF
C90 a_n503_n500# a_n661_n500# 0.56fF
C91 a_919_n500# a_1393_n500# 0.15fF
C92 a_n1293_n500# a_129_n500# 0.05fF
C93 w_n1809_n797# a_n1609_n500# 0.30fF
C94 a_n287_n597# a_n1551_n597# 0.01fF
C95 a_n819_n500# a_287_n500# 0.06fF
C96 a_n1235_n597# a_n1077_n597# 0.12fF
C97 a_n819_n500# a_n1451_n500# 0.11fF
C98 a_n977_n500# a_n661_n500# 0.24fF
C99 a_503_n597# a_n129_n597# 0.02fF
C100 a_n445_n597# a_187_n597# 0.02fF
C101 a_503_n597# a_661_n597# 0.12fF
C102 a_n1609_n500# a_n661_n500# 0.07fF
C103 a_1077_n500# a_n187_n500# 0.05fF
C104 w_n1809_n797# a_445_n500# 0.04fF
C105 a_761_n500# a_1551_n500# 0.09fF
C106 a_761_n500# a_129_n500# 0.11fF
C107 w_n1809_n797# a_187_n597# 0.24fF
C108 a_603_n500# a_1551_n500# 0.07fF
C109 a_n1293_n500# a_n187_n500# 0.06fF
C110 a_n445_n597# w_n1809_n797# 0.24fF
C111 a_1077_n500# a_287_n500# 0.09fF
C112 a_919_n500# a_445_n500# 0.15fF
C113 a_603_n500# a_129_n500# 0.15fF
C114 a_n603_n597# a_345_n597# 0.01fF
C115 a_1135_n597# a_503_n597# 0.02fF
C116 a_n919_n597# a_n603_n597# 0.04fF
C117 a_445_n500# a_n661_n500# 0.06fF
C118 a_n919_n597# a_345_n597# 0.01fF
C119 a_n1293_n500# a_287_n500# 0.04fF
C120 a_977_n597# a_n603_n597# 0.01fF
C121 a_29_n597# a_n129_n597# 0.12fF
C122 a_n1293_n500# a_n1451_n500# 0.56fF
C123 a_187_n597# a_n1077_n597# 0.01fF
C124 a_n1393_n597# a_n129_n597# 0.01fF
C125 a_29_n597# a_661_n597# 0.02fF
C126 a_n445_n597# a_n1077_n597# 0.02fF
C127 w_n1809_n797# a_919_n500# 0.06fF
C128 a_n1135_n500# a_129_n500# 0.05fF
C129 a_977_n597# a_345_n597# 0.02fF
C130 a_1293_n597# a_n129_n597# 0.01fF
C131 a_1293_n597# a_661_n597# 0.02fF
C132 a_761_n500# a_n187_n500# 0.07fF
C133 w_n1809_n797# a_n661_n500# 0.05fF
C134 a_n345_n500# a_n29_n500# 0.24fF
C135 w_n1809_n797# a_n1077_n597# 0.24fF
C136 a_819_n597# a_n129_n597# 0.01fF
C137 a_1551_n500# a_129_n500# 0.05fF
C138 a_29_n597# a_n1235_n597# 0.01fF
C139 a_603_n500# a_n187_n500# 0.09fF
C140 a_29_n597# a_1135_n597# 0.01fF
C141 a_819_n597# a_661_n597# 0.12fF
C142 a_n503_n500# a_n29_n500# 0.15fF
C143 a_n1235_n597# a_n1393_n597# 0.12fF
C144 a_n345_n500# a_1235_n500# 0.04fF
C145 a_n603_n597# a_n1551_n597# 0.01fF
C146 a_187_n597# a_503_n597# 0.04fF
C147 a_919_n500# a_n661_n500# 0.04fF
C148 a_1135_n597# a_1293_n597# 0.12fF
C149 a_761_n500# a_287_n500# 0.15fF
C150 a_n445_n597# a_503_n597# 0.01fF
C151 a_1393_n500# a_n29_n500# 0.05fF
C152 a_603_n500# a_287_n500# 0.24fF
C153 a_n919_n597# a_n1551_n597# 0.02fF
C154 a_1135_n597# a_819_n597# 0.04fF
C155 a_1235_n500# a_1393_n500# 0.56fF
C156 a_n977_n500# a_n29_n500# 0.07fF
C157 a_n1135_n500# a_n187_n500# 0.07fF
C158 w_n1809_n797# a_503_n597# 0.23fF
C159 a_n1609_n500# a_n29_n500# 0.04fF
C160 a_n819_n500# a_n345_n500# 0.15fF
C161 a_1451_n597# a_345_n597# 0.01fF
C162 a_n503_n500# a_n819_n500# 0.24fF
C163 a_n1135_n500# a_287_n500# 0.05fF
C164 a_n187_n500# a_129_n500# 0.24fF
C165 a_n761_n597# a_n129_n597# 0.02fF
C166 a_n1135_n500# a_n1451_n500# 0.24fF
C167 a_29_n597# a_187_n597# 0.12fF
C168 a_n761_n597# a_661_n597# 0.01fF
C169 a_187_n597# a_n1393_n597# 0.01fF
C170 a_503_n597# a_n1077_n597# 0.01fF
C171 a_977_n597# a_1451_n597# 0.02fF
C172 a_n287_n597# a_n129_n597# 0.12fF
C173 a_29_n597# a_n445_n597# 0.02fF
C174 a_n445_n597# a_n1393_n597# 0.01fF
C175 a_1551_n500# a_287_n500# 0.05fF
C176 a_187_n597# a_1293_n597# 0.01fF
C177 a_n287_n597# a_661_n597# 0.01fF
C178 a_287_n500# a_129_n500# 0.56fF
C179 a_445_n500# a_n29_n500# 0.15fF
C180 a_n977_n500# a_n819_n500# 0.56fF
C181 a_n345_n500# a_1077_n500# 0.05fF
C182 a_n1451_n500# a_129_n500# 0.04fF
C183 a_29_n597# w_n1809_n797# 0.24fF
C184 a_1235_n500# a_445_n500# 0.09fF
C185 a_n819_n500# a_n1609_n500# 0.09fF
C186 a_819_n597# a_187_n597# 0.02fF
C187 a_n761_n597# a_n1235_n597# 0.02fF
C188 w_n1809_n797# a_n1393_n597# 0.25fF
C189 a_n503_n500# a_1077_n500# 0.04fF
C190 a_819_n597# a_n445_n597# 0.01fF
C191 a_n287_n597# a_n1235_n597# 0.01fF
C192 w_n1809_n797# a_1293_n597# 0.19fF
C193 a_1135_n597# a_n287_n597# 0.01fF
C194 a_n1293_n500# a_n345_n500# 0.07fF
C195 a_1077_n500# a_1393_n500# 0.24fF
C196 a_n503_n500# a_n1293_n500# 0.09fF
C197 w_n1809_n797# a_n29_n500# 0.02fF
C198 a_819_n597# w_n1809_n797# 0.21fF
C199 a_29_n597# a_n1077_n597# 0.01fF
C200 w_n1809_n797# a_1235_n500# 0.09fF
C201 a_n1393_n597# a_n1077_n597# 0.04fF
C202 a_919_n500# a_n29_n500# 0.07fF
C203 a_n819_n500# a_445_n500# 0.05fF
C204 a_287_n500# a_n187_n500# 0.15fF
C205 a_919_n500# a_1235_n500# 0.24fF
C206 a_n1451_n500# a_n187_n500# 0.05fF
C207 a_n1293_n500# a_n977_n500# 0.24fF
C208 a_n661_n500# a_n29_n500# 0.11fF
C209 a_n1293_n500# a_n1609_n500# 0.24fF
C210 a_761_n500# a_n345_n500# 0.06fF
C211 a_n761_n597# a_187_n597# 0.01fF
C212 a_29_n597# a_503_n597# 0.02fF
C213 a_n761_n597# a_n445_n597# 0.04fF
C214 a_n819_n500# w_n1809_n797# 0.05fF
C215 a_n503_n500# a_761_n500# 0.05fF
C216 a_n287_n597# a_187_n597# 0.02fF
C217 a_603_n500# a_n345_n500# 0.07fF
C218 a_n445_n597# a_n287_n597# 0.12fF
C219 a_1077_n500# a_445_n500# 0.11fF
C220 a_1293_n597# a_503_n597# 0.01fF
C221 a_n503_n500# a_603_n500# 0.06fF
C222 a_n761_n597# w_n1809_n797# 0.24fF
C223 a_761_n500# a_1393_n500# 0.11fF
C224 a_n603_n597# a_n129_n597# 0.02fF
C225 a_819_n597# a_503_n597# 0.04fF
C226 w_n1809_n797# a_n287_n597# 0.24fF
C227 a_603_n500# a_1393_n500# 0.09fF
C228 a_n603_n597# a_661_n597# 0.01fF
C229 a_n819_n500# a_n661_n500# 0.56fF
C230 a_n345_n500# a_n1135_n500# 0.09fF
C231 a_345_n597# a_n129_n597# 0.02fF
C232 a_n977_n500# a_603_n500# 0.04fF
C233 w_n1809_n797# a_1077_n500# 0.07fF
C234 a_n919_n597# a_n129_n597# 0.01fF
C235 a_345_n597# a_661_n597# 0.04fF
C236 a_n503_n500# a_n1135_n500# 0.11fF
C237 a_n919_n597# a_661_n597# 0.01fF
C238 a_n761_n597# a_n1077_n597# 0.04fF
C239 a_n603_n597# a_n1235_n597# 0.02fF
C240 a_29_n597# a_n1393_n597# 0.01fF
C241 a_919_n500# a_1077_n500# 0.56fF
C242 a_977_n597# a_n129_n597# 0.01fF
C243 a_n345_n500# a_129_n500# 0.15fF
C244 a_n287_n597# a_n1077_n597# 0.01fF
C245 a_n1293_n500# w_n1809_n797# 0.09fF
C246 a_977_n597# a_661_n597# 0.04fF
C247 a_29_n597# a_1293_n597# 0.01fF
C248 a_n1235_n597# a_345_n597# 0.01fF
C249 a_n503_n500# a_129_n500# 0.11fF
C250 a_1135_n597# a_345_n597# 0.01fF
C251 a_n977_n500# a_n1135_n500# 0.56fF
C252 a_n919_n597# a_n1235_n597# 0.04fF
C253 a_761_n500# a_445_n500# 0.24fF
C254 a_1393_n500# a_1551_n500# 0.56fF
C255 a_29_n597# a_819_n597# 0.01fF
C256 a_n1135_n500# a_n1609_n500# 0.15fF
C257 a_1393_n500# a_129_n500# 0.05fF
C258 a_603_n500# a_445_n500# 0.56fF
C259 a_n761_n597# a_503_n597# 0.01fF
C260 a_977_n597# a_1135_n597# 0.12fF
C261 a_819_n597# a_1293_n597# 0.02fF
C262 a_n1293_n500# a_n661_n500# 0.11fF
C263 a_n1551_n597# a_n129_n597# 0.01fF
C264 a_n977_n500# a_129_n500# 0.06fF
C265 a_n287_n597# a_503_n597# 0.01fF
C266 a_1235_n500# a_n29_n500# 0.05fF
C267 a_761_n500# w_n1809_n797# 0.05fF
C268 a_n345_n500# a_n187_n500# 0.56fF
C269 a_n603_n597# a_187_n597# 0.01fF
C270 a_n1135_n500# a_445_n500# 0.04fF
C271 a_603_n500# w_n1809_n797# 0.05fF
C272 a_n503_n500# a_n187_n500# 0.24fF
C273 a_n603_n597# a_n445_n597# 0.12fF
C274 a_761_n500# a_919_n500# 0.56fF