* NGSPICE file created from a_mux4_en_flat.ext - technology: sky130A

.subckt a_mux4_en_flat en s1 s0 in0 in1 in2 in3 out VDD VSS
X0 out switch_5t_1/transmission_gate_0/en_b switch_5t_1/transmission_gate_0/out VDD sky130_fd_pr__pfet_01v8 ad=1.05536e+13p pd=8.08e+07u as=4.8824e+12p ps=3.71e+07u w=1.36e+06u l=150000u
X1 switch_5t_0/transmission_gate_0/in sky130_fd_sc_hd__inv_1_3/A switch_5t_0/transmission_gate_0/out VDD sky130_fd_pr__pfet_01v8 ad=4.8824e+12p pd=3.71e+07u as=4.8824e+12p ps=3.71e+07u w=1.36e+06u l=150000u
X2 switch_5t_3/transmission_gate_0/in transmission_gate_0/en_b in3 VDD sky130_fd_pr__pfet_01v8 ad=4.8824e+12p pd=3.71e+07u as=2.244e+12p ps=1.69e+07u w=1.36e+06u l=150000u
X3 switch_5t_2/transmission_gate_0/in en in2 VSS sky130_fd_pr__nfet_01v8 ad=1.8668e+12p pd=1.862e+07u as=8.58e+11p ps=8.5e+06u w=520000u l=150000u
X4 switch_5t_1/transmission_gate_0/in transmission_gate_0/en_b in0 VDD sky130_fd_pr__pfet_01v8 ad=4.8824e+12p pd=3.71e+07u as=2.244e+12p ps=1.69e+07u w=1.36e+06u l=150000u
X5 switch_5t_3/transmission_gate_0/out sky130_fd_sc_hd__nand2_1_0/Y out VDD sky130_fd_pr__pfet_01v8 ad=4.8824e+12p pd=3.71e+07u as=0p ps=0u w=1.36e+06u l=150000u
X6 in3 transmission_gate_0/en_b switch_5t_3/transmission_gate_0/in VDD sky130_fd_pr__pfet_01v8 ad=0p pd=0u as=0p ps=0u w=1.36e+06u l=150000u
X7 switch_5t_2/transmission_gate_0/out switch_5t_2/transmission_gate_0/en_b switch_5t_2/transmission_gate_0/in VDD sky130_fd_pr__pfet_01v8 ad=4.8824e+12p pd=3.71e+07u as=4.8824e+12p ps=3.71e+07u w=1.36e+06u l=150000u
X8 in2 transmission_gate_0/en_b switch_5t_2/transmission_gate_0/in VDD sky130_fd_pr__pfet_01v8 ad=2.244e+12p pd=1.69e+07u as=0p ps=0u w=1.36e+06u l=150000u
X9 switch_5t_2/transmission_gate_0/out switch_5t_2/transmission_gate_0/en out VSS sky130_fd_pr__nfet_01v8 ad=2.0118e+12p pd=2.02e+07u as=4.0352e+12p ps=4.048e+07u w=520000u l=150000u
X10 switch_5t_1/transmission_gate_0/out switch_5t_1/transmission_gate_0/en_b switch_5t_1/transmission_gate_0/in VDD sky130_fd_pr__pfet_01v8 ad=0p pd=0u as=0p ps=0u w=1.36e+06u l=150000u
X11 switch_5t_0/transmission_gate_0/in transmission_gate_0/en_b in1 VDD sky130_fd_pr__pfet_01v8 ad=0p pd=0u as=2.244e+12p ps=1.69e+07u w=1.36e+06u l=150000u
X12 a_n499_n2830# sky130_fd_sc_hd__nand2_1_3/A VSS VSS sky130_fd_pr__nfet_01v8 ad=1.755e+11p pd=1.84e+06u as=2.439e+12p ps=2.634e+07u w=650000u l=150000u
X13 switch_5t_1/transmission_gate_0/out switch_5t_1/transmission_gate_0/en switch_5t_1/transmission_gate_0/in VSS sky130_fd_pr__nfet_01v8 ad=2.0118e+12p pd=2.02e+07u as=1.8668e+12p ps=1.862e+07u w=520000u l=150000u
X14 switch_5t_1/transmission_gate_0/in en in0 VSS sky130_fd_pr__nfet_01v8 ad=0p pd=0u as=8.58e+11p ps=8.5e+06u w=520000u l=150000u
X15 switch_5t_0/transmission_gate_0/in sky130_fd_sc_hd__inv_1_3/A switch_5t_0/transmission_gate_0/out VDD sky130_fd_pr__pfet_01v8 ad=0p pd=0u as=0p ps=0u w=1.36e+06u l=150000u
X16 out sky130_fd_sc_hd__inv_1_3/A switch_5t_0/transmission_gate_0/out VDD sky130_fd_pr__pfet_01v8 ad=0p pd=0u as=0p ps=0u w=1.36e+06u l=150000u
X17 switch_5t_3/transmission_gate_0/in transmission_gate_0/en_b in3 VDD sky130_fd_pr__pfet_01v8 ad=0p pd=0u as=0p ps=0u w=1.36e+06u l=150000u
X18 a_n499_n1742# sky130_fd_sc_hd__nand2_1_3/B VSS VSS sky130_fd_pr__nfet_01v8 ad=1.755e+11p pd=1.84e+06u as=0p ps=0u w=650000u l=150000u
X19 switch_5t_0/transmission_gate_0/in en in1 VSS sky130_fd_pr__nfet_01v8 ad=1.8668e+12p pd=1.862e+07u as=8.58e+11p ps=8.5e+06u w=520000u l=150000u
X20 switch_5t_3/transmission_gate_0/in sky130_fd_sc_hd__nand2_1_0/Y switch_5t_3/transmission_gate_0/out VDD sky130_fd_pr__pfet_01v8 ad=0p pd=0u as=0p ps=0u w=1.36e+06u l=150000u
X21 switch_5t_0/transmission_gate_0/out sky130_fd_sc_hd__inv_1_3/A out VDD sky130_fd_pr__pfet_01v8 ad=0p pd=0u as=0p ps=0u w=1.36e+06u l=150000u
X22 switch_5t_1/transmission_gate_0/out switch_5t_1/transmission_gate_0/en out VSS sky130_fd_pr__nfet_01v8 ad=0p pd=0u as=0p ps=0u w=520000u l=150000u
X23 in1 transmission_gate_0/en_b switch_5t_0/transmission_gate_0/in VDD sky130_fd_pr__pfet_01v8 ad=0p pd=0u as=0p ps=0u w=1.36e+06u l=150000u
X24 in1 en switch_5t_0/transmission_gate_0/in VSS sky130_fd_pr__nfet_01v8 ad=0p pd=0u as=0p ps=0u w=520000u l=150000u
X25 switch_5t_2/transmission_gate_0/in switch_5t_2/transmission_gate_0/en switch_5t_2/transmission_gate_0/out VSS sky130_fd_pr__nfet_01v8 ad=0p pd=0u as=0p ps=0u w=520000u l=150000u
X26 in3 en switch_5t_3/transmission_gate_0/in VSS sky130_fd_pr__nfet_01v8 ad=8.58e+11p pd=8.5e+06u as=1.8668e+12p ps=1.862e+07u w=520000u l=150000u
X27 switch_5t_0/transmission_gate_0/out sky130_fd_sc_hd__inv_1_3/Y out VSS sky130_fd_pr__nfet_01v8 ad=2.0118e+12p pd=2.02e+07u as=0p ps=0u w=520000u l=150000u
X28 switch_5t_0/transmission_gate_0/out sky130_fd_sc_hd__inv_1_3/A switch_5t_0/transmission_gate_0/in VDD sky130_fd_pr__pfet_01v8 ad=0p pd=0u as=0p ps=0u w=1.36e+06u l=150000u
X29 switch_5t_3/transmission_gate_0/in sky130_fd_sc_hd__nand2_1_0/Y switch_5t_3/transmission_gate_0/out VDD sky130_fd_pr__pfet_01v8 ad=0p pd=0u as=0p ps=0u w=1.36e+06u l=150000u
X30 switch_5t_3/transmission_gate_0/out switch_5t_3/transmission_gate_0/en switch_5t_3/transmission_gate_0/in VSS sky130_fd_pr__nfet_01v8 ad=2.0118e+12p pd=2.02e+07u as=0p ps=0u w=520000u l=150000u
X31 switch_5t_2/transmission_gate_0/in en in2 VSS sky130_fd_pr__nfet_01v8 ad=0p pd=0u as=0p ps=0u w=520000u l=150000u
X32 switch_5t_1/transmission_gate_0/in switch_5t_1/transmission_gate_0/en switch_5t_1/transmission_gate_0/out VSS sky130_fd_pr__nfet_01v8 ad=0p pd=0u as=0p ps=0u w=520000u l=150000u
X33 switch_5t_1/transmission_gate_0/in switch_5t_1/transmission_gate_0/en_b switch_5t_1/transmission_gate_0/out VDD sky130_fd_pr__pfet_01v8 ad=0p pd=0u as=0p ps=0u w=1.36e+06u l=150000u
X34 out sky130_fd_sc_hd__inv_1_3/A switch_5t_0/transmission_gate_0/out VDD sky130_fd_pr__pfet_01v8 ad=0p pd=0u as=0p ps=0u w=1.36e+06u l=150000u
X35 switch_5t_2/transmission_gate_0/in switch_5t_2/transmission_gate_0/en switch_5t_2/transmission_gate_0/out VSS sky130_fd_pr__nfet_01v8 ad=0p pd=0u as=0p ps=0u w=520000u l=150000u
X36 out switch_5t_3/transmission_gate_0/en switch_5t_3/transmission_gate_0/out VSS sky130_fd_pr__nfet_01v8 ad=0p pd=0u as=0p ps=0u w=520000u l=150000u
X37 switch_5t_0/transmission_gate_0/in en in1 VSS sky130_fd_pr__nfet_01v8 ad=0p pd=0u as=0p ps=0u w=520000u l=150000u
X38 switch_5t_1/transmission_gate_0/in transmission_gate_0/en_b in0 VDD sky130_fd_pr__pfet_01v8 ad=0p pd=0u as=0p ps=0u w=1.36e+06u l=150000u
X39 sky130_fd_sc_hd__inv_1_3/Y sky130_fd_sc_hd__inv_1_3/A VSS VSS sky130_fd_pr__nfet_01v8 ad=1.69e+11p pd=1.82e+06u as=0p ps=0u w=650000u l=150000u
X40 switch_5t_0/transmission_gate_0/in sky130_fd_sc_hd__inv_1_3/Y switch_5t_0/transmission_gate_0/out VSS sky130_fd_pr__nfet_01v8 ad=0p pd=0u as=0p ps=0u w=520000u l=150000u
X41 switch_5t_3/transmission_gate_0/in transmission_gate_0/en_b in3 VDD sky130_fd_pr__pfet_01v8 ad=0p pd=0u as=0p ps=0u w=1.36e+06u l=150000u
X42 in2 en switch_5t_2/transmission_gate_0/in VSS sky130_fd_pr__nfet_01v8 ad=0p pd=0u as=0p ps=0u w=520000u l=150000u
X43 out sky130_fd_sc_hd__nand2_1_0/Y switch_5t_3/transmission_gate_0/out VDD sky130_fd_pr__pfet_01v8 ad=0p pd=0u as=0p ps=0u w=1.36e+06u l=150000u
X44 switch_5t_2/transmission_gate_0/in switch_5t_2/transmission_gate_0/en_b switch_5t_2/transmission_gate_0/out VDD sky130_fd_pr__pfet_01v8 ad=0p pd=0u as=0p ps=0u w=1.36e+06u l=150000u
X45 in0 transmission_gate_0/en_b switch_5t_1/transmission_gate_0/in VDD sky130_fd_pr__pfet_01v8 ad=0p pd=0u as=0p ps=0u w=1.36e+06u l=150000u
X46 switch_5t_3/transmission_gate_0/in sky130_fd_sc_hd__nand2_1_0/Y switch_5t_3/transmission_gate_0/out VDD sky130_fd_pr__pfet_01v8 ad=0p pd=0u as=0p ps=0u w=1.36e+06u l=150000u
X47 switch_5t_0/transmission_gate_0/in sky130_fd_sc_hd__inv_1_3/Y switch_5t_0/transmission_gate_0/out VSS sky130_fd_pr__nfet_01v8 ad=0p pd=0u as=0p ps=0u w=520000u l=150000u
X48 out switch_5t_2/transmission_gate_0/en switch_5t_2/transmission_gate_0/out VSS sky130_fd_pr__nfet_01v8 ad=0p pd=0u as=0p ps=0u w=520000u l=150000u
X49 switch_5t_3/transmission_gate_0/out sky130_fd_sc_hd__nand2_1_0/Y out VDD sky130_fd_pr__pfet_01v8 ad=0p pd=0u as=0p ps=0u w=1.36e+06u l=150000u
X50 out switch_5t_1/transmission_gate_0/en switch_5t_1/transmission_gate_0/out VSS sky130_fd_pr__nfet_01v8 ad=0p pd=0u as=0p ps=0u w=520000u l=150000u
X51 switch_5t_2/transmission_gate_0/in switch_5t_2/transmission_gate_0/en switch_5t_2/transmission_gate_0/out VSS sky130_fd_pr__nfet_01v8 ad=0p pd=0u as=0p ps=0u w=520000u l=150000u
X52 in3 transmission_gate_0/en_b switch_5t_3/transmission_gate_0/in VDD sky130_fd_pr__pfet_01v8 ad=0p pd=0u as=0p ps=0u w=1.36e+06u l=150000u
X53 out switch_5t_1/transmission_gate_0/en_b switch_5t_1/transmission_gate_0/out VDD sky130_fd_pr__pfet_01v8 ad=0p pd=0u as=0p ps=0u w=1.36e+06u l=150000u
X54 switch_5t_0/transmission_gate_0/out sky130_fd_sc_hd__inv_1_3/A switch_5t_0/transmission_gate_0/in VDD sky130_fd_pr__pfet_01v8 ad=0p pd=0u as=0p ps=0u w=1.36e+06u l=150000u
X55 switch_5t_2/transmission_gate_0/out switch_5t_2/transmission_gate_0/en out VSS sky130_fd_pr__nfet_01v8 ad=0p pd=0u as=0p ps=0u w=520000u l=150000u
X56 sky130_fd_sc_hd__inv_1_3/A sky130_fd_sc_hd__nand2_1_3/B VDD VDD sky130_fd_pr__pfet_01v8_hvt ad=2.7e+11p pd=2.54e+06u as=3.9e+12p ps=3.78e+07u w=1e+06u l=150000u
X57 out sky130_fd_sc_hd__inv_1_3/A switch_5t_0/transmission_gate_0/out VDD sky130_fd_pr__pfet_01v8 ad=0p pd=0u as=0p ps=0u w=1.36e+06u l=150000u
X58 switch_5t_3/transmission_gate_0/out sky130_fd_sc_hd__nand2_1_0/Y switch_5t_3/transmission_gate_0/in VDD sky130_fd_pr__pfet_01v8 ad=0p pd=0u as=0p ps=0u w=1.36e+06u l=150000u
X59 switch_5t_1/transmission_gate_0/out switch_5t_1/transmission_gate_0/en switch_5t_1/transmission_gate_0/in VSS sky130_fd_pr__nfet_01v8 ad=0p pd=0u as=0p ps=0u w=520000u l=150000u
X60 out sky130_fd_sc_hd__nand2_1_0/Y switch_5t_3/transmission_gate_0/out VDD sky130_fd_pr__pfet_01v8 ad=0p pd=0u as=0p ps=0u w=1.36e+06u l=150000u
X61 switch_5t_0/transmission_gate_0/in en in1 VSS sky130_fd_pr__nfet_01v8 ad=0p pd=0u as=0p ps=0u w=520000u l=150000u
X62 switch_5t_2/transmission_gate_0/out switch_5t_2/transmission_gate_0/en switch_5t_2/transmission_gate_0/in VSS sky130_fd_pr__nfet_01v8 ad=0p pd=0u as=0p ps=0u w=520000u l=150000u
X63 switch_5t_2/transmission_gate_0/en switch_5t_2/transmission_gate_0/en_b VDD VDD sky130_fd_pr__pfet_01v8_hvt ad=2.6e+11p pd=2.52e+06u as=0p ps=0u w=1e+06u l=150000u
X64 switch_5t_2/transmission_gate_0/in switch_5t_2/transmission_gate_0/en_b switch_5t_2/transmission_gate_0/out VDD sky130_fd_pr__pfet_01v8 ad=0p pd=0u as=0p ps=0u w=1.36e+06u l=150000u
X65 out sky130_fd_sc_hd__inv_1_3/Y switch_5t_0/transmission_gate_0/out VSS sky130_fd_pr__nfet_01v8 ad=0p pd=0u as=0p ps=0u w=520000u l=150000u
X66 out switch_5t_2/transmission_gate_0/en switch_5t_2/transmission_gate_0/out VSS sky130_fd_pr__nfet_01v8 ad=0p pd=0u as=0p ps=0u w=520000u l=150000u
X67 in0 transmission_gate_0/en_b switch_5t_1/transmission_gate_0/in VDD sky130_fd_pr__pfet_01v8 ad=0p pd=0u as=0p ps=0u w=1.36e+06u l=150000u
X68 switch_5t_0/transmission_gate_0/in sky130_fd_sc_hd__inv_1_3/Y switch_5t_0/transmission_gate_0/out VSS sky130_fd_pr__nfet_01v8 ad=0p pd=0u as=0p ps=0u w=520000u l=150000u
X69 switch_5t_0/transmission_gate_0/out sky130_fd_sc_hd__inv_1_3/A out VDD sky130_fd_pr__pfet_01v8 ad=0p pd=0u as=0p ps=0u w=1.36e+06u l=150000u
X70 switch_5t_3/transmission_gate_0/out switch_5t_3/transmission_gate_0/en out VSS sky130_fd_pr__nfet_01v8 ad=0p pd=0u as=0p ps=0u w=520000u l=150000u
X71 switch_5t_1/transmission_gate_0/out switch_5t_1/transmission_gate_0/en out VSS sky130_fd_pr__nfet_01v8 ad=0p pd=0u as=0p ps=0u w=520000u l=150000u
X72 switch_5t_0/transmission_gate_0/out sky130_fd_sc_hd__inv_1_3/Y out VSS sky130_fd_pr__nfet_01v8 ad=0p pd=0u as=0p ps=0u w=520000u l=150000u
X73 switch_5t_3/transmission_gate_0/en sky130_fd_sc_hd__nand2_1_0/Y VSS VSS sky130_fd_pr__nfet_01v8 ad=1.69e+11p pd=1.82e+06u as=0p ps=0u w=650000u l=150000u
X74 in1 en switch_5t_0/transmission_gate_0/in VSS sky130_fd_pr__nfet_01v8 ad=0p pd=0u as=0p ps=0u w=520000u l=150000u
X75 VDD s0 switch_5t_2/transmission_gate_0/en_b VDD sky130_fd_pr__pfet_01v8_hvt ad=0p pd=0u as=2.7e+11p ps=2.54e+06u w=1e+06u l=150000u
X76 switch_5t_1/transmission_gate_0/out switch_5t_1/transmission_gate_0/en_b out VDD sky130_fd_pr__pfet_01v8 ad=0p pd=0u as=0p ps=0u w=1.36e+06u l=150000u
X77 switch_5t_0/transmission_gate_0/out sky130_fd_sc_hd__inv_1_3/Y switch_5t_0/transmission_gate_0/in VSS sky130_fd_pr__nfet_01v8 ad=0p pd=0u as=0p ps=0u w=520000u l=150000u
X78 switch_5t_3/transmission_gate_0/en sky130_fd_sc_hd__nand2_1_0/Y VDD VDD sky130_fd_pr__pfet_01v8_hvt ad=2.6e+11p pd=2.52e+06u as=0p ps=0u w=1e+06u l=150000u
X79 switch_5t_1/transmission_gate_0/in switch_5t_1/transmission_gate_0/en switch_5t_1/transmission_gate_0/out VSS sky130_fd_pr__nfet_01v8 ad=0p pd=0u as=0p ps=0u w=520000u l=150000u
X80 VDD sky130_fd_sc_hd__nand2_1_3/A switch_5t_1/transmission_gate_0/en_b VDD sky130_fd_pr__pfet_01v8_hvt ad=0p pd=0u as=2.7e+11p ps=2.54e+06u w=1e+06u l=150000u
X81 out sky130_fd_sc_hd__inv_1_3/Y switch_5t_0/transmission_gate_0/out VSS sky130_fd_pr__nfet_01v8 ad=0p pd=0u as=0p ps=0u w=520000u l=150000u
X82 switch_5t_3/transmission_gate_0/out sky130_fd_sc_hd__nand2_1_0/Y switch_5t_3/transmission_gate_0/in VDD sky130_fd_pr__pfet_01v8 ad=0p pd=0u as=0p ps=0u w=1.36e+06u l=150000u
X83 sky130_fd_sc_hd__nand2_1_0/Y s0 a_n499_n3694# VSS sky130_fd_pr__nfet_01v8 ad=1.69e+11p pd=1.82e+06u as=1.755e+11p ps=1.84e+06u w=650000u l=150000u
X84 switch_5t_2/transmission_gate_0/out switch_5t_2/transmission_gate_0/en switch_5t_2/transmission_gate_0/in VSS sky130_fd_pr__nfet_01v8 ad=0p pd=0u as=0p ps=0u w=520000u l=150000u
X85 switch_5t_2/transmission_gate_0/out switch_5t_2/transmission_gate_0/en_b VSS VSS sky130_fd_pr__nfet_01v8 ad=0p pd=0u as=0p ps=0u w=500000u l=150000u
X86 VDD s0 sky130_fd_sc_hd__nand2_1_0/Y VDD sky130_fd_pr__pfet_01v8_hvt ad=0p pd=0u as=2.7e+11p ps=2.54e+06u w=1e+06u l=150000u
X87 out sky130_fd_sc_hd__nand2_1_0/Y switch_5t_3/transmission_gate_0/out VDD sky130_fd_pr__pfet_01v8 ad=0p pd=0u as=0p ps=0u w=1.36e+06u l=150000u
X88 switch_5t_1/transmission_gate_0/in switch_5t_1/transmission_gate_0/en_b switch_5t_1/transmission_gate_0/out VDD sky130_fd_pr__pfet_01v8 ad=0p pd=0u as=0p ps=0u w=1.36e+06u l=150000u
X89 out switch_5t_2/transmission_gate_0/en switch_5t_2/transmission_gate_0/out VSS sky130_fd_pr__nfet_01v8 ad=0p pd=0u as=0p ps=0u w=520000u l=150000u
X90 switch_5t_0/transmission_gate_0/out sky130_fd_sc_hd__inv_1_3/A out VDD sky130_fd_pr__pfet_01v8 ad=0p pd=0u as=0p ps=0u w=1.36e+06u l=150000u
X91 switch_5t_3/transmission_gate_0/out sky130_fd_sc_hd__nand2_1_0/Y out VDD sky130_fd_pr__pfet_01v8 ad=0p pd=0u as=0p ps=0u w=1.36e+06u l=150000u
X92 switch_5t_3/transmission_gate_0/out switch_5t_3/transmission_gate_0/en switch_5t_3/transmission_gate_0/in VSS sky130_fd_pr__nfet_01v8 ad=0p pd=0u as=0p ps=0u w=520000u l=150000u
X93 switch_5t_2/transmission_gate_0/out switch_5t_2/transmission_gate_0/en_b switch_5t_2/transmission_gate_0/in VDD sky130_fd_pr__pfet_01v8 ad=0p pd=0u as=0p ps=0u w=1.36e+06u l=150000u
X94 out switch_5t_1/transmission_gate_0/en switch_5t_1/transmission_gate_0/out VSS sky130_fd_pr__nfet_01v8 ad=0p pd=0u as=0p ps=0u w=520000u l=150000u
X95 switch_5t_0/transmission_gate_0/out sky130_fd_sc_hd__inv_1_3/A VSS VSS sky130_fd_pr__nfet_01v8 ad=0p pd=0u as=0p ps=0u w=500000u l=150000u
X96 switch_5t_0/transmission_gate_0/out sky130_fd_sc_hd__inv_1_3/Y switch_5t_0/transmission_gate_0/in VSS sky130_fd_pr__nfet_01v8 ad=0p pd=0u as=0p ps=0u w=520000u l=150000u
X97 switch_5t_2/transmission_gate_0/out switch_5t_2/transmission_gate_0/en out VSS sky130_fd_pr__nfet_01v8 ad=0p pd=0u as=0p ps=0u w=520000u l=150000u
X98 out switch_5t_2/transmission_gate_0/en_b switch_5t_2/transmission_gate_0/out VDD sky130_fd_pr__pfet_01v8 ad=0p pd=0u as=0p ps=0u w=1.36e+06u l=150000u
X99 out sky130_fd_sc_hd__inv_1_3/Y switch_5t_0/transmission_gate_0/out VSS sky130_fd_pr__nfet_01v8 ad=0p pd=0u as=0p ps=0u w=520000u l=150000u
X100 out sky130_fd_sc_hd__inv_1_3/A switch_5t_0/transmission_gate_0/out VDD sky130_fd_pr__pfet_01v8 ad=0p pd=0u as=0p ps=0u w=1.36e+06u l=150000u
X101 switch_5t_1/transmission_gate_0/out switch_5t_1/transmission_gate_0/en_b switch_5t_1/transmission_gate_0/in VDD sky130_fd_pr__pfet_01v8 ad=0p pd=0u as=0p ps=0u w=1.36e+06u l=150000u
X102 in0 transmission_gate_0/en_b switch_5t_1/transmission_gate_0/in VDD sky130_fd_pr__pfet_01v8 ad=0p pd=0u as=0p ps=0u w=1.36e+06u l=150000u
X103 switch_5t_2/transmission_gate_0/in transmission_gate_0/en_b in2 VDD sky130_fd_pr__pfet_01v8 ad=0p pd=0u as=0p ps=0u w=1.36e+06u l=150000u
X104 switch_5t_1/transmission_gate_0/out switch_5t_1/transmission_gate_0/en_b out VDD sky130_fd_pr__pfet_01v8 ad=0p pd=0u as=0p ps=0u w=1.36e+06u l=150000u
X105 switch_5t_0/transmission_gate_0/out sky130_fd_sc_hd__inv_1_3/Y out VSS sky130_fd_pr__nfet_01v8 ad=0p pd=0u as=0p ps=0u w=520000u l=150000u
X106 switch_5t_1/transmission_gate_0/in en in0 VSS sky130_fd_pr__nfet_01v8 ad=0p pd=0u as=0p ps=0u w=520000u l=150000u
X107 switch_5t_0/transmission_gate_0/out sky130_fd_sc_hd__inv_1_3/A switch_5t_0/transmission_gate_0/in VDD sky130_fd_pr__pfet_01v8 ad=0p pd=0u as=0p ps=0u w=1.36e+06u l=150000u
X108 in2 transmission_gate_0/en_b switch_5t_2/transmission_gate_0/in VDD sky130_fd_pr__pfet_01v8 ad=0p pd=0u as=0p ps=0u w=1.36e+06u l=150000u
X109 switch_5t_3/transmission_gate_0/out sky130_fd_sc_hd__nand2_1_0/Y out VDD sky130_fd_pr__pfet_01v8 ad=0p pd=0u as=0p ps=0u w=1.36e+06u l=150000u
X110 switch_5t_1/transmission_gate_0/out switch_5t_1/transmission_gate_0/en out VSS sky130_fd_pr__nfet_01v8 ad=0p pd=0u as=0p ps=0u w=520000u l=150000u
X111 sky130_fd_sc_hd__inv_1_3/Y sky130_fd_sc_hd__inv_1_3/A VDD VDD sky130_fd_pr__pfet_01v8_hvt ad=2.6e+11p pd=2.52e+06u as=0p ps=0u w=1e+06u l=150000u
X112 switch_5t_2/transmission_gate_0/out switch_5t_2/transmission_gate_0/en out VSS sky130_fd_pr__nfet_01v8 ad=0p pd=0u as=0p ps=0u w=520000u l=150000u
X113 switch_5t_1/transmission_gate_0/en switch_5t_1/transmission_gate_0/en_b VSS VSS sky130_fd_pr__nfet_01v8 ad=1.69e+11p pd=1.82e+06u as=0p ps=0u w=650000u l=150000u
X114 switch_5t_3/transmission_gate_0/in en in3 VSS sky130_fd_pr__nfet_01v8 ad=0p pd=0u as=0p ps=0u w=520000u l=150000u
X115 switch_5t_2/transmission_gate_0/in transmission_gate_0/en_b in2 VDD sky130_fd_pr__pfet_01v8 ad=0p pd=0u as=0p ps=0u w=1.36e+06u l=150000u
X116 out sky130_fd_sc_hd__nand2_1_0/Y switch_5t_3/transmission_gate_0/out VDD sky130_fd_pr__pfet_01v8 ad=0p pd=0u as=0p ps=0u w=1.36e+06u l=150000u
X117 switch_5t_1/transmission_gate_0/in switch_5t_1/transmission_gate_0/en switch_5t_1/transmission_gate_0/out VSS sky130_fd_pr__nfet_01v8 ad=0p pd=0u as=0p ps=0u w=520000u l=150000u
X118 in1 transmission_gate_0/en_b switch_5t_0/transmission_gate_0/in VDD sky130_fd_pr__pfet_01v8 ad=0p pd=0u as=0p ps=0u w=1.36e+06u l=150000u
X119 out switch_5t_2/transmission_gate_0/en switch_5t_2/transmission_gate_0/out VSS sky130_fd_pr__nfet_01v8 ad=0p pd=0u as=0p ps=0u w=520000u l=150000u
X120 in3 en switch_5t_3/transmission_gate_0/in VSS sky130_fd_pr__nfet_01v8 ad=0p pd=0u as=0p ps=0u w=520000u l=150000u
X121 switch_5t_3/transmission_gate_0/out switch_5t_3/transmission_gate_0/en out VSS sky130_fd_pr__nfet_01v8 ad=0p pd=0u as=0p ps=0u w=520000u l=150000u
X122 switch_5t_2/transmission_gate_0/out switch_5t_2/transmission_gate_0/en_b out VDD sky130_fd_pr__pfet_01v8 ad=0p pd=0u as=0p ps=0u w=1.36e+06u l=150000u
X123 switch_5t_1/transmission_gate_0/in transmission_gate_0/en_b in0 VDD sky130_fd_pr__pfet_01v8 ad=0p pd=0u as=0p ps=0u w=1.36e+06u l=150000u
X124 switch_5t_0/transmission_gate_0/out sky130_fd_sc_hd__inv_1_3/Y out VSS sky130_fd_pr__nfet_01v8 ad=0p pd=0u as=0p ps=0u w=520000u l=150000u
X125 switch_5t_2/transmission_gate_0/en_b sky130_fd_sc_hd__nand2_1_3/A VDD VDD sky130_fd_pr__pfet_01v8_hvt ad=0p pd=0u as=0p ps=0u w=1e+06u l=150000u
X126 in1 transmission_gate_0/en_b switch_5t_0/transmission_gate_0/in VDD sky130_fd_pr__pfet_01v8 ad=0p pd=0u as=0p ps=0u w=1.36e+06u l=150000u
X127 switch_5t_1/transmission_gate_0/en_b sky130_fd_sc_hd__nand2_1_3/B VDD VDD sky130_fd_pr__pfet_01v8_hvt ad=0p pd=0u as=0p ps=0u w=1e+06u l=150000u
X128 out switch_5t_1/transmission_gate_0/en switch_5t_1/transmission_gate_0/out VSS sky130_fd_pr__nfet_01v8 ad=0p pd=0u as=0p ps=0u w=520000u l=150000u
X129 switch_5t_0/transmission_gate_0/in transmission_gate_0/en_b in1 VDD sky130_fd_pr__pfet_01v8 ad=0p pd=0u as=0p ps=0u w=1.36e+06u l=150000u
X130 switch_5t_3/transmission_gate_0/in en in3 VSS sky130_fd_pr__nfet_01v8 ad=0p pd=0u as=0p ps=0u w=520000u l=150000u
X131 switch_5t_1/transmission_gate_0/out switch_5t_1/transmission_gate_0/en_b switch_5t_1/transmission_gate_0/in VDD sky130_fd_pr__pfet_01v8 ad=0p pd=0u as=0p ps=0u w=1.36e+06u l=150000u
X132 switch_5t_3/transmission_gate_0/out sky130_fd_sc_hd__nand2_1_0/Y switch_5t_3/transmission_gate_0/in VDD sky130_fd_pr__pfet_01v8 ad=0p pd=0u as=0p ps=0u w=1.36e+06u l=150000u
X133 switch_5t_3/transmission_gate_0/in switch_5t_3/transmission_gate_0/en switch_5t_3/transmission_gate_0/out VSS sky130_fd_pr__nfet_01v8 ad=0p pd=0u as=0p ps=0u w=520000u l=150000u
X134 a_n499_n3694# s1 VSS VSS sky130_fd_pr__nfet_01v8 ad=0p pd=0u as=0p ps=0u w=650000u l=150000u
X135 switch_5t_1/transmission_gate_0/in en in0 VSS sky130_fd_pr__nfet_01v8 ad=0p pd=0u as=0p ps=0u w=520000u l=150000u
X136 out sky130_fd_sc_hd__inv_1_3/Y switch_5t_0/transmission_gate_0/out VSS sky130_fd_pr__nfet_01v8 ad=0p pd=0u as=0p ps=0u w=520000u l=150000u
X137 sky130_fd_sc_hd__nand2_1_3/B s0 VSS VSS sky130_fd_pr__nfet_01v8 ad=1.69e+11p pd=1.82e+06u as=0p ps=0u w=650000u l=150000u
X138 sky130_fd_sc_hd__nand2_1_0/Y s1 VDD VDD sky130_fd_pr__pfet_01v8_hvt ad=0p pd=0u as=0p ps=0u w=1e+06u l=150000u
X139 in2 en switch_5t_2/transmission_gate_0/in VSS sky130_fd_pr__nfet_01v8 ad=0p pd=0u as=0p ps=0u w=520000u l=150000u
X140 switch_5t_2/transmission_gate_0/in transmission_gate_0/en_b in2 VDD sky130_fd_pr__pfet_01v8 ad=0p pd=0u as=0p ps=0u w=1.36e+06u l=150000u
X141 switch_5t_2/transmission_gate_0/out switch_5t_2/transmission_gate_0/en switch_5t_2/transmission_gate_0/in VSS sky130_fd_pr__nfet_01v8 ad=0p pd=0u as=0p ps=0u w=520000u l=150000u
X142 switch_5t_0/transmission_gate_0/in sky130_fd_sc_hd__inv_1_3/A switch_5t_0/transmission_gate_0/out VDD sky130_fd_pr__pfet_01v8 ad=0p pd=0u as=0p ps=0u w=1.36e+06u l=150000u
X143 switch_5t_3/transmission_gate_0/in switch_5t_3/transmission_gate_0/en switch_5t_3/transmission_gate_0/out VSS sky130_fd_pr__nfet_01v8 ad=0p pd=0u as=0p ps=0u w=520000u l=150000u
X144 in0 en switch_5t_1/transmission_gate_0/in VSS sky130_fd_pr__nfet_01v8 ad=0p pd=0u as=0p ps=0u w=520000u l=150000u
X145 in2 en switch_5t_2/transmission_gate_0/in VSS sky130_fd_pr__nfet_01v8 ad=0p pd=0u as=0p ps=0u w=520000u l=150000u
X146 switch_5t_1/transmission_gate_0/out switch_5t_1/transmission_gate_0/en switch_5t_1/transmission_gate_0/in VSS sky130_fd_pr__nfet_01v8 ad=0p pd=0u as=0p ps=0u w=520000u l=150000u
X147 in3 transmission_gate_0/en_b switch_5t_3/transmission_gate_0/in VDD sky130_fd_pr__pfet_01v8 ad=0p pd=0u as=0p ps=0u w=1.36e+06u l=150000u
X148 switch_5t_2/transmission_gate_0/in en in2 VSS sky130_fd_pr__nfet_01v8 ad=0p pd=0u as=0p ps=0u w=520000u l=150000u
X149 in2 transmission_gate_0/en_b switch_5t_2/transmission_gate_0/in VDD sky130_fd_pr__pfet_01v8 ad=0p pd=0u as=0p ps=0u w=1.36e+06u l=150000u
X150 switch_5t_2/transmission_gate_0/out switch_5t_2/transmission_gate_0/en_b switch_5t_2/transmission_gate_0/in VDD sky130_fd_pr__pfet_01v8 ad=0p pd=0u as=0p ps=0u w=1.36e+06u l=150000u
X151 in0 transmission_gate_0/en_b switch_5t_1/transmission_gate_0/in VDD sky130_fd_pr__pfet_01v8 ad=0p pd=0u as=0p ps=0u w=1.36e+06u l=150000u
X152 switch_5t_0/transmission_gate_0/in transmission_gate_0/en_b in1 VDD sky130_fd_pr__pfet_01v8 ad=0p pd=0u as=0p ps=0u w=1.36e+06u l=150000u
X153 switch_5t_0/transmission_gate_0/out sky130_fd_sc_hd__inv_1_3/Y switch_5t_0/transmission_gate_0/in VSS sky130_fd_pr__nfet_01v8 ad=0p pd=0u as=0p ps=0u w=520000u l=150000u
X154 switch_5t_3/transmission_gate_0/in en in3 VSS sky130_fd_pr__nfet_01v8 ad=0p pd=0u as=0p ps=0u w=520000u l=150000u
X155 in3 transmission_gate_0/en_b switch_5t_3/transmission_gate_0/in VDD sky130_fd_pr__pfet_01v8 ad=0p pd=0u as=0p ps=0u w=1.36e+06u l=150000u
X156 out switch_5t_3/transmission_gate_0/en switch_5t_3/transmission_gate_0/out VSS sky130_fd_pr__nfet_01v8 ad=0p pd=0u as=0p ps=0u w=520000u l=150000u
X157 switch_5t_3/transmission_gate_0/in transmission_gate_0/en_b in3 VDD sky130_fd_pr__pfet_01v8 ad=0p pd=0u as=0p ps=0u w=1.36e+06u l=150000u
X158 switch_5t_0/transmission_gate_0/in sky130_fd_sc_hd__inv_1_3/A switch_5t_0/transmission_gate_0/out VDD sky130_fd_pr__pfet_01v8 ad=0p pd=0u as=0p ps=0u w=1.36e+06u l=150000u
X159 switch_5t_3/transmission_gate_0/in switch_5t_3/transmission_gate_0/en switch_5t_3/transmission_gate_0/out VSS sky130_fd_pr__nfet_01v8 ad=0p pd=0u as=0p ps=0u w=520000u l=150000u
X160 in0 en switch_5t_1/transmission_gate_0/in VSS sky130_fd_pr__nfet_01v8 ad=0p pd=0u as=0p ps=0u w=520000u l=150000u
X161 switch_5t_3/transmission_gate_0/out switch_5t_3/transmission_gate_0/en out VSS sky130_fd_pr__nfet_01v8 ad=0p pd=0u as=0p ps=0u w=520000u l=150000u
X162 switch_5t_1/transmission_gate_0/in switch_5t_1/transmission_gate_0/en switch_5t_1/transmission_gate_0/out VSS sky130_fd_pr__nfet_01v8 ad=0p pd=0u as=0p ps=0u w=520000u l=150000u
X163 in3 en switch_5t_3/transmission_gate_0/in VSS sky130_fd_pr__nfet_01v8 ad=0p pd=0u as=0p ps=0u w=520000u l=150000u
X164 in1 en switch_5t_0/transmission_gate_0/in VSS sky130_fd_pr__nfet_01v8 ad=0p pd=0u as=0p ps=0u w=520000u l=150000u
X165 switch_5t_3/transmission_gate_0/in sky130_fd_sc_hd__nand2_1_0/Y switch_5t_3/transmission_gate_0/out VDD sky130_fd_pr__pfet_01v8 ad=0p pd=0u as=0p ps=0u w=1.36e+06u l=150000u
X166 transmission_gate_0/en_b en VSS VSS sky130_fd_pr__nfet_01v8 ad=1.69e+11p pd=1.82e+06u as=0p ps=0u w=650000u l=150000u
X167 switch_5t_3/transmission_gate_0/out switch_5t_3/transmission_gate_0/en switch_5t_3/transmission_gate_0/in VSS sky130_fd_pr__nfet_01v8 ad=0p pd=0u as=0p ps=0u w=520000u l=150000u
X168 switch_5t_2/transmission_gate_0/in en in2 VSS sky130_fd_pr__nfet_01v8 ad=0p pd=0u as=0p ps=0u w=520000u l=150000u
X169 out switch_5t_1/transmission_gate_0/en_b switch_5t_1/transmission_gate_0/out VDD sky130_fd_pr__pfet_01v8 ad=0p pd=0u as=0p ps=0u w=1.36e+06u l=150000u
X170 switch_5t_2/transmission_gate_0/in switch_5t_2/transmission_gate_0/en switch_5t_2/transmission_gate_0/out VSS sky130_fd_pr__nfet_01v8 ad=0p pd=0u as=0p ps=0u w=520000u l=150000u
X171 out switch_5t_3/transmission_gate_0/en switch_5t_3/transmission_gate_0/out VSS sky130_fd_pr__nfet_01v8 ad=0p pd=0u as=0p ps=0u w=520000u l=150000u
X172 switch_5t_1/transmission_gate_0/in transmission_gate_0/en_b in0 VDD sky130_fd_pr__pfet_01v8 ad=0p pd=0u as=0p ps=0u w=1.36e+06u l=150000u
X173 in1 en switch_5t_0/transmission_gate_0/in VSS sky130_fd_pr__nfet_01v8 ad=0p pd=0u as=0p ps=0u w=520000u l=150000u
X174 switch_5t_0/transmission_gate_0/in en in1 VSS sky130_fd_pr__nfet_01v8 ad=0p pd=0u as=0p ps=0u w=520000u l=150000u
X175 sky130_fd_sc_hd__nand2_1_3/A s1 VSS VSS sky130_fd_pr__nfet_01v8 ad=1.69e+11p pd=1.82e+06u as=0p ps=0u w=650000u l=150000u
X176 out switch_5t_1/transmission_gate_0/en switch_5t_1/transmission_gate_0/out VSS sky130_fd_pr__nfet_01v8 ad=0p pd=0u as=0p ps=0u w=520000u l=150000u
X177 switch_5t_3/transmission_gate_0/in transmission_gate_0/en_b in3 VDD sky130_fd_pr__pfet_01v8 ad=0p pd=0u as=0p ps=0u w=1.36e+06u l=150000u
X178 switch_5t_3/transmission_gate_0/in sky130_fd_sc_hd__nand2_1_0/Y switch_5t_3/transmission_gate_0/out VDD sky130_fd_pr__pfet_01v8 ad=0p pd=0u as=0p ps=0u w=1.36e+06u l=150000u
X179 switch_5t_0/transmission_gate_0/in sky130_fd_sc_hd__inv_1_3/Y switch_5t_0/transmission_gate_0/out VSS sky130_fd_pr__nfet_01v8 ad=0p pd=0u as=0p ps=0u w=520000u l=150000u
X180 switch_5t_2/transmission_gate_0/out switch_5t_2/transmission_gate_0/en_b out VDD sky130_fd_pr__pfet_01v8 ad=0p pd=0u as=0p ps=0u w=1.36e+06u l=150000u
X181 in1 transmission_gate_0/en_b switch_5t_0/transmission_gate_0/in VDD sky130_fd_pr__pfet_01v8 ad=0p pd=0u as=0p ps=0u w=1.36e+06u l=150000u
X182 switch_5t_2/transmission_gate_0/in switch_5t_2/transmission_gate_0/en switch_5t_2/transmission_gate_0/out VSS sky130_fd_pr__nfet_01v8 ad=0p pd=0u as=0p ps=0u w=520000u l=150000u
X183 switch_5t_1/transmission_gate_0/out switch_5t_1/transmission_gate_0/en_b switch_5t_1/transmission_gate_0/in VDD sky130_fd_pr__pfet_01v8 ad=0p pd=0u as=0p ps=0u w=1.36e+06u l=150000u
X184 switch_5t_0/transmission_gate_0/out sky130_fd_sc_hd__inv_1_3/A switch_5t_0/transmission_gate_0/in VDD sky130_fd_pr__pfet_01v8 ad=0p pd=0u as=0p ps=0u w=1.36e+06u l=150000u
X185 switch_5t_3/transmission_gate_0/out switch_5t_3/transmission_gate_0/en switch_5t_3/transmission_gate_0/in VSS sky130_fd_pr__nfet_01v8 ad=0p pd=0u as=0p ps=0u w=520000u l=150000u
X186 in0 transmission_gate_0/en_b switch_5t_1/transmission_gate_0/in VDD sky130_fd_pr__pfet_01v8 ad=0p pd=0u as=0p ps=0u w=1.36e+06u l=150000u
X187 switch_5t_1/transmission_gate_0/out switch_5t_1/transmission_gate_0/en_b out VDD sky130_fd_pr__pfet_01v8 ad=0p pd=0u as=0p ps=0u w=1.36e+06u l=150000u
X188 out sky130_fd_sc_hd__inv_1_3/A switch_5t_0/transmission_gate_0/out VDD sky130_fd_pr__pfet_01v8 ad=0p pd=0u as=0p ps=0u w=1.36e+06u l=150000u
X189 out switch_5t_3/transmission_gate_0/en switch_5t_3/transmission_gate_0/out VSS sky130_fd_pr__nfet_01v8 ad=0p pd=0u as=0p ps=0u w=520000u l=150000u
X190 switch_5t_0/transmission_gate_0/in en in1 VSS sky130_fd_pr__nfet_01v8 ad=0p pd=0u as=0p ps=0u w=520000u l=150000u
X191 switch_5t_2/transmission_gate_0/in switch_5t_2/transmission_gate_0/en_b switch_5t_2/transmission_gate_0/out VDD sky130_fd_pr__pfet_01v8 ad=0p pd=0u as=0p ps=0u w=1.36e+06u l=150000u