* NGSPICE file created from analog_top.ext - technology: sky130A

.subckt sky130_fd_pr__nfet_g5v0d10v5_BRTJC6 a_n345_n500# a_1135_n588# a_n603_n588#
+ a_n1393_n588# a_n1609_n500# a_661_n588# a_n1135_n500# a_n977_n500# a_1293_n588#
+ a_n761_n588# a_n503_n500# a_n1551_n588# a_129_n500# a_n1293_n500# a_287_n500# a_n661_n500#
+ a_1451_n588# a_n1451_n500# a_919_n500# a_445_n500# a_1077_n500# a_29_n588# a_n129_n588#
+ a_603_n500# a_187_n588# a_1235_n500# a_n287_n588# a_761_n500# a_819_n588# a_345_n588#
+ a_n1077_n588# a_n29_n500# a_1393_n500# a_n919_n588# a_n1743_n722# a_n187_n500# a_977_n588#
+ a_n445_n588# a_503_n588# a_n1235_n588# a_1551_n500# a_n819_n500#
X0 a_n819_n500# a_n919_n588# a_n977_n500# a_n1743_n722# sky130_fd_pr__nfet_g5v0d10v5 ad=1.45e+12p pd=1.058e+07u as=1.45e+12p ps=1.058e+07u w=5e+06u l=500000u
X1 a_n661_n500# a_n761_n588# a_n819_n500# a_n1743_n722# sky130_fd_pr__nfet_g5v0d10v5 ad=1.45e+12p pd=1.058e+07u as=0p ps=0u w=5e+06u l=500000u
X2 a_919_n500# a_819_n588# a_761_n500# a_n1743_n722# sky130_fd_pr__nfet_g5v0d10v5 ad=1.45e+12p pd=1.058e+07u as=1.45e+12p ps=1.058e+07u w=5e+06u l=500000u
X3 a_n187_n500# a_n287_n588# a_n345_n500# a_n1743_n722# sky130_fd_pr__nfet_g5v0d10v5 ad=1.45e+12p pd=1.058e+07u as=1.45e+12p ps=1.058e+07u w=5e+06u l=500000u
X4 a_761_n500# a_661_n588# a_603_n500# a_n1743_n722# sky130_fd_pr__nfet_g5v0d10v5 ad=0p pd=0u as=1.45e+12p ps=1.058e+07u w=5e+06u l=500000u
X5 a_287_n500# a_187_n588# a_129_n500# a_n1743_n722# sky130_fd_pr__nfet_g5v0d10v5 ad=1.45e+12p pd=1.058e+07u as=1.45e+12p ps=1.058e+07u w=5e+06u l=500000u
X6 a_n1293_n500# a_n1393_n588# a_n1451_n500# a_n1743_n722# sky130_fd_pr__nfet_g5v0d10v5 ad=1.45e+12p pd=1.058e+07u as=1.45e+12p ps=1.058e+07u w=5e+06u l=500000u
X7 a_1393_n500# a_1293_n588# a_1235_n500# a_n1743_n722# sky130_fd_pr__nfet_g5v0d10v5 ad=1.45e+12p pd=1.058e+07u as=1.45e+12p ps=1.058e+07u w=5e+06u l=500000u
X8 a_n345_n500# a_n445_n588# a_n503_n500# a_n1743_n722# sky130_fd_pr__nfet_g5v0d10v5 ad=0p pd=0u as=1.45e+12p ps=1.058e+07u w=5e+06u l=500000u
X9 a_129_n500# a_29_n588# a_n29_n500# a_n1743_n722# sky130_fd_pr__nfet_g5v0d10v5 ad=0p pd=0u as=1.45e+12p ps=1.058e+07u w=5e+06u l=500000u
X10 a_445_n500# a_345_n588# a_287_n500# a_n1743_n722# sky130_fd_pr__nfet_g5v0d10v5 ad=1.45e+12p pd=1.058e+07u as=0p ps=0u w=5e+06u l=500000u
X11 a_n1451_n500# a_n1551_n588# a_n1609_n500# a_n1743_n722# sky130_fd_pr__nfet_g5v0d10v5 ad=0p pd=0u as=1.45e+12p ps=1.058e+07u w=5e+06u l=500000u
X12 a_1551_n500# a_1451_n588# a_1393_n500# a_n1743_n722# sky130_fd_pr__nfet_g5v0d10v5 ad=1.45e+12p pd=1.058e+07u as=0p ps=0u w=5e+06u l=500000u
X13 a_n977_n500# a_n1077_n588# a_n1135_n500# a_n1743_n722# sky130_fd_pr__nfet_g5v0d10v5 ad=0p pd=0u as=1.45e+12p ps=1.058e+07u w=5e+06u l=500000u
X14 a_n503_n500# a_n603_n588# a_n661_n500# a_n1743_n722# sky130_fd_pr__nfet_g5v0d10v5 ad=0p pd=0u as=0p ps=0u w=5e+06u l=500000u
X15 a_1077_n500# a_977_n588# a_919_n500# a_n1743_n722# sky130_fd_pr__nfet_g5v0d10v5 ad=1.45e+12p pd=1.058e+07u as=0p ps=0u w=5e+06u l=500000u
X16 a_n29_n500# a_n129_n588# a_n187_n500# a_n1743_n722# sky130_fd_pr__nfet_g5v0d10v5 ad=0p pd=0u as=0p ps=0u w=5e+06u l=500000u
X17 a_603_n500# a_503_n588# a_445_n500# a_n1743_n722# sky130_fd_pr__nfet_g5v0d10v5 ad=0p pd=0u as=0p ps=0u w=5e+06u l=500000u
X18 a_n1135_n500# a_n1235_n588# a_n1293_n500# a_n1743_n722# sky130_fd_pr__nfet_g5v0d10v5 ad=0p pd=0u as=0p ps=0u w=5e+06u l=500000u
X19 a_1235_n500# a_1135_n588# a_1077_n500# a_n1743_n722# sky130_fd_pr__nfet_g5v0d10v5 ad=0p pd=0u as=0p ps=0u w=5e+06u l=500000u
C0 a_819_n588# a_n603_n588# 0.01fF
C1 a_345_n588# a_977_n588# 0.02fF
C2 a_919_n500# a_1551_n500# 0.11fF
C3 a_n503_n500# a_129_n500# 0.11fF
C4 a_819_n588# a_n761_n588# 0.01fF
C5 a_661_n588# a_n603_n588# 0.01fF
C6 a_187_n588# a_977_n588# 0.01fF
C7 a_1293_n588# a_n129_n588# 0.01fF
C8 a_n977_n500# a_603_n500# 0.04fF
C9 a_n1551_n588# a_29_n588# 0.01fF
C10 a_661_n588# a_n761_n588# 0.01fF
C11 a_1077_n500# a_1235_n500# 0.56fF
C12 a_503_n588# a_n603_n588# 0.01fF
C13 a_29_n588# a_977_n588# 0.01fF
C14 a_n819_n500# a_287_n500# 0.06fF
C15 a_603_n500# a_761_n500# 0.56fF
C16 a_1293_n588# a_n287_n588# 0.01fF
C17 a_503_n588# a_n761_n588# 0.01fF
C18 a_n29_n500# a_1235_n500# 0.05fF
C19 a_n187_n500# a_1393_n500# 0.04fF
C20 a_n129_n588# a_819_n588# 0.01fF
C21 a_n603_n588# a_n919_n588# 0.04fF
C22 a_n287_n588# a_819_n588# 0.01fF
C23 a_n129_n588# a_661_n588# 0.01fF
C24 a_1135_n588# a_977_n588# 0.12fF
C25 a_129_n500# a_n1293_n500# 0.05fF
C26 a_n187_n500# a_129_n500# 0.24fF
C27 a_n761_n588# a_n919_n588# 0.12fF
C28 a_n287_n588# a_661_n588# 0.01fF
C29 a_n129_n588# a_503_n588# 0.02fF
C30 a_n445_n588# a_819_n588# 0.01fF
C31 a_345_n588# a_1293_n588# 0.01fF
C32 a_n661_n500# a_603_n500# 0.05fF
C33 a_1077_n500# a_1551_n500# 0.15fF
C34 a_1235_n500# a_1393_n500# 0.56fF
C35 a_n287_n588# a_503_n588# 0.01fF
C36 a_n445_n588# a_661_n588# 0.01fF
C37 a_n503_n500# a_287_n500# 0.09fF
C38 a_187_n588# a_1293_n588# 0.01fF
C39 a_n445_n588# a_503_n588# 0.01fF
C40 a_n29_n500# a_1551_n500# 0.04fF
C41 a_29_n588# a_1293_n588# 0.01fF
C42 a_n1077_n588# a_n1235_n588# 0.12fF
C43 a_n819_n500# a_445_n500# 0.05fF
C44 a_603_n500# a_919_n500# 0.24fF
C45 a_n129_n588# a_n919_n588# 0.01fF
C46 a_345_n588# a_819_n588# 0.02fF
C47 a_129_n500# a_1235_n500# 0.06fF
C48 a_n287_n588# a_n919_n588# 0.02fF
C49 a_187_n588# a_819_n588# 0.02fF
C50 a_345_n588# a_661_n588# 0.04fF
C51 a_n445_n588# a_n919_n588# 0.02fF
C52 a_345_n588# a_503_n588# 0.12fF
C53 a_29_n588# a_819_n588# 0.01fF
C54 a_187_n588# a_661_n588# 0.02fF
C55 a_n1393_n588# a_n1235_n588# 0.12fF
C56 a_1135_n588# a_1293_n588# 0.12fF
C57 a_n345_n500# a_603_n500# 0.07fF
C58 a_1393_n500# a_1551_n500# 0.56fF
C59 a_187_n588# a_503_n588# 0.04fF
C60 a_29_n588# a_661_n588# 0.02fF
C61 a_287_n500# a_n1293_n500# 0.04fF
C62 a_n187_n500# a_287_n500# 0.15fF
C63 a_n977_n500# a_n661_n500# 0.24fF
C64 a_n661_n500# a_761_n500# 0.05fF
C65 a_29_n588# a_503_n588# 0.02fF
C66 a_n503_n500# a_445_n500# 0.07fF
C67 a_345_n588# a_n919_n588# 0.01fF
C68 a_1135_n588# a_819_n588# 0.04fF
C69 a_129_n500# a_1551_n500# 0.05fF
C70 a_187_n588# a_n919_n588# 0.01fF
C71 a_1135_n588# a_661_n588# 0.02fF
C72 a_761_n500# a_919_n500# 0.56fF
C73 a_603_n500# a_1077_n500# 0.15fF
C74 a_29_n588# a_n919_n588# 0.01fF
C75 a_1135_n588# a_503_n588# 0.02fF
C76 a_287_n500# a_1235_n500# 0.07fF
C77 a_n29_n500# a_603_n500# 0.11fF
C78 a_n819_n500# a_n1609_n500# 0.09fF
C79 a_n977_n500# a_n1451_n500# 0.15fF
C80 a_n977_n500# a_n345_n500# 0.11fF
C81 a_n819_n500# a_n503_n500# 0.24fF
C82 a_n345_n500# a_761_n500# 0.06fF
C83 a_n1077_n588# a_n603_n588# 0.02fF
C84 a_n187_n500# a_445_n500# 0.11fF
C85 a_n1077_n588# a_n761_n588# 0.04fF
C86 a_1293_n588# a_977_n588# 0.04fF
C87 a_n661_n500# a_919_n500# 0.04fF
C88 a_603_n500# a_1393_n500# 0.09fF
C89 a_n1393_n588# a_n603_n588# 0.01fF
C90 a_287_n500# a_1551_n500# 0.05fF
C91 a_n1393_n588# a_n761_n588# 0.02fF
C92 a_761_n500# a_1077_n500# 0.24fF
C93 a_819_n588# a_977_n588# 0.12fF
C94 a_n503_n500# a_n1609_n500# 0.06fF
C95 a_n819_n500# a_n1293_n500# 0.15fF
C96 a_n977_n500# a_n1135_n500# 0.56fF
C97 a_n661_n500# a_n1451_n500# 0.09fF
C98 a_n661_n500# a_n345_n500# 0.24fF
C99 a_n977_n500# a_n29_n500# 0.07fF
C100 a_n819_n500# a_n187_n500# 0.11fF
C101 a_n1077_n588# a_n129_n588# 0.01fF
C102 a_445_n500# a_1235_n500# 0.09fF
C103 a_661_n588# a_977_n588# 0.04fF
C104 a_n29_n500# a_761_n500# 0.09fF
C105 a_129_n500# a_603_n500# 0.15fF
C106 a_n1077_n588# a_n287_n588# 0.01fF
C107 a_503_n588# a_977_n588# 0.02fF
C108 a_n1077_n588# a_n445_n588# 0.02fF
C109 a_n345_n500# a_919_n500# 0.05fF
C110 a_n1393_n588# a_n129_n588# 0.01fF
C111 a_n1393_n588# a_n287_n588# 0.01fF
C112 a_n1551_n588# a_n919_n588# 0.02fF
C113 a_n1393_n588# a_n445_n588# 0.01fF
C114 a_761_n500# a_1393_n500# 0.11fF
C115 a_n187_n500# a_n1609_n500# 0.05fF
C116 a_n345_n500# a_n1451_n500# 0.06fF
C117 a_n661_n500# a_n1135_n500# 0.15fF
C118 a_n503_n500# a_n1293_n500# 0.09fF
C119 a_n1609_n500# a_n1293_n500# 0.24fF
C120 a_n661_n500# a_n29_n500# 0.11fF
C121 a_n503_n500# a_n187_n500# 0.24fF
C122 a_n1077_n588# a_345_n588# 0.01fF
C123 a_445_n500# a_1551_n500# 0.06fF
C124 a_919_n500# a_1077_n500# 0.56fF
C125 a_n1077_n588# a_187_n588# 0.01fF
C126 a_1293_n588# a_819_n588# 0.02fF
C127 a_n977_n500# a_129_n500# 0.06fF
C128 a_n1077_n588# a_29_n588# 0.01fF
C129 a_n29_n500# a_919_n500# 0.07fF
C130 a_287_n500# a_603_n500# 0.24fF
C131 a_1293_n588# a_661_n588# 0.02fF
C132 a_129_n500# a_761_n500# 0.11fF
C133 a_n1235_n588# a_n603_n588# 0.02fF
C134 a_1293_n588# a_503_n588# 0.01fF
C135 a_n1393_n588# a_187_n588# 0.01fF
C136 a_n345_n500# a_1077_n500# 0.05fF
C137 a_n1235_n588# a_n761_n588# 0.02fF
C138 a_n1393_n588# a_29_n588# 0.01fF
C139 a_661_n588# a_819_n588# 0.12fF
C140 a_n29_n500# a_n1451_n500# 0.05fF
C141 a_n1451_n500# a_n1135_n500# 0.24fF
C142 a_n187_n500# a_n1293_n500# 0.06fF
C143 a_n345_n500# a_n1135_n500# 0.09fF
C144 a_n345_n500# a_n29_n500# 0.24fF
C145 a_503_n588# a_819_n588# 0.04fF
C146 a_919_n500# a_1393_n500# 0.15fF
C147 a_n661_n500# a_129_n500# 0.09fF
C148 a_503_n588# a_661_n588# 0.12fF
C149 a_n1235_n588# a_n129_n588# 0.01fF
C150 a_n977_n500# a_287_n500# 0.05fF
C151 a_n1235_n588# a_n287_n588# 0.01fF
C152 a_n187_n500# a_1235_n500# 0.05fF
C153 a_287_n500# a_761_n500# 0.15fF
C154 a_129_n500# a_919_n500# 0.09fF
C155 a_445_n500# a_603_n500# 0.56fF
C156 a_n29_n500# a_1077_n500# 0.06fF
C157 a_n1235_n588# a_n445_n588# 0.01fF
C158 a_661_n588# a_n919_n588# 0.01fF
C159 a_n29_n500# a_n1135_n500# 0.06fF
C160 a_503_n588# a_n919_n588# 0.01fF
C161 a_129_n500# a_n1451_n500# 0.04fF
C162 a_n345_n500# a_129_n500# 0.15fF
C163 a_n1235_n588# a_345_n588# 0.01fF
C164 a_1451_n588# a_n129_n588# 0.01fF
C165 a_n819_n500# a_603_n500# 0.05fF
C166 a_1077_n500# a_1393_n500# 0.24fF
C167 a_n1077_n588# a_n1551_n588# 0.02fF
C168 a_n661_n500# a_287_n500# 0.07fF
C169 a_n1235_n588# a_187_n588# 0.01fF
C170 a_n761_n588# a_n603_n588# 0.12fF
C171 a_n29_n500# a_1393_n500# 0.05fF
C172 a_n1235_n588# a_29_n588# 0.01fF
C173 a_n977_n500# a_445_n500# 0.05fF
C174 a_n1393_n588# a_n1551_n588# 0.12fF
C175 a_287_n500# a_919_n500# 0.11fF
C176 a_445_n500# a_761_n500# 0.24fF
C177 a_129_n500# a_1077_n500# 0.07fF
C178 a_129_n500# a_n1135_n500# 0.05fF
C179 a_n29_n500# a_129_n500# 0.56fF
C180 a_n129_n588# a_n603_n588# 0.02fF
C181 a_345_n588# a_1451_n588# 0.01fF
C182 a_n503_n500# a_603_n500# 0.06fF
C183 a_1235_n500# a_1551_n500# 0.24fF
C184 a_n287_n588# a_n603_n588# 0.04fF
C185 a_n129_n588# a_n761_n588# 0.02fF
C186 a_n345_n500# a_287_n500# 0.11fF
C187 a_n977_n500# a_n819_n500# 0.56fF
C188 a_187_n588# a_1451_n588# 0.01fF
C189 a_n287_n588# a_n761_n588# 0.02fF
C190 a_n445_n588# a_n603_n588# 0.12fF
C191 a_n819_n500# a_761_n500# 0.04fF
C192 a_29_n588# a_1451_n588# 0.01fF
C193 a_n661_n500# a_445_n500# 0.06fF
C194 a_n445_n588# a_n761_n588# 0.04fF
C195 a_129_n500# a_1393_n500# 0.05fF
C196 a_345_n588# a_n603_n588# 0.01fF
C197 a_n287_n588# a_n129_n588# 0.12fF
C198 a_445_n500# a_919_n500# 0.15fF
C199 a_287_n500# a_1077_n500# 0.09fF
C200 a_1135_n588# a_1451_n588# 0.04fF
C201 a_n187_n500# a_603_n500# 0.09fF
C202 a_187_n588# a_n603_n588# 0.01fF
C203 a_345_n588# a_n761_n588# 0.01fF
C204 a_n445_n588# a_n129_n588# 0.04fF
C205 a_287_n500# a_n1135_n500# 0.05fF
C206 a_n977_n500# a_n1609_n500# 0.11fF
C207 a_n29_n500# a_287_n500# 0.24fF
C208 a_n977_n500# a_n503_n500# 0.15fF
C209 a_n819_n500# a_n661_n500# 0.56fF
C210 a_n445_n588# a_n287_n588# 0.12fF
C211 a_187_n588# a_n761_n588# 0.01fF
C212 a_29_n588# a_n603_n588# 0.02fF
C213 a_n503_n500# a_761_n500# 0.05fF
C214 a_n1077_n588# a_503_n588# 0.01fF
C215 a_n345_n500# a_445_n500# 0.09fF
C216 a_n1235_n588# a_n1551_n588# 0.04fF
C217 a_29_n588# a_n761_n588# 0.01fF
C218 a_345_n588# a_n129_n588# 0.02fF
C219 a_603_n500# a_1235_n500# 0.11fF
C220 a_287_n500# a_1393_n500# 0.06fF
C221 a_187_n588# a_n129_n588# 0.04fF
C222 a_345_n588# a_n287_n588# 0.02fF
C223 a_n1077_n588# a_n919_n588# 0.12fF
C224 a_187_n588# a_n287_n588# 0.02fF
C225 a_345_n588# a_n445_n588# 0.01fF
C226 a_29_n588# a_n129_n588# 0.12fF
C227 a_n977_n500# a_n1293_n500# 0.24fF
C228 a_n661_n500# a_n1609_n500# 0.07fF
C229 a_n819_n500# a_n1451_n500# 0.11fF
C230 a_n819_n500# a_n345_n500# 0.15fF
C231 a_n977_n500# a_n187_n500# 0.09fF
C232 a_n661_n500# a_n503_n500# 0.56fF
C233 a_445_n500# a_1077_n500# 0.11fF
C234 a_29_n588# a_n287_n588# 0.04fF
C235 a_n187_n500# a_761_n500# 0.07fF
C236 a_187_n588# a_n445_n588# 0.02fF
C237 a_445_n500# a_n1135_n500# 0.04fF
C238 a_n29_n500# a_445_n500# 0.15fF
C239 a_n1393_n588# a_n919_n588# 0.02fF
C240 a_129_n500# a_287_n500# 0.56fF
C241 a_29_n588# a_n445_n588# 0.02fF
C242 a_1451_n588# a_977_n588# 0.02fF
C243 a_n503_n500# a_919_n500# 0.05fF
C244 a_1135_n588# a_n129_n588# 0.01fF
C245 a_603_n500# a_1551_n500# 0.07fF
C246 a_1135_n588# a_n287_n588# 0.01fF
C247 a_187_n588# a_345_n588# 0.12fF
C248 a_761_n500# a_1235_n500# 0.15fF
C249 a_1135_n588# a_n445_n588# 0.01fF
C250 a_29_n588# a_345_n588# 0.04fF
C251 a_n661_n500# a_n1293_n500# 0.11fF
C252 a_n503_n500# a_n1451_n500# 0.07fF
C253 a_n819_n500# a_n1135_n500# 0.24fF
C254 a_n1609_n500# a_n1451_n500# 0.56fF
C255 a_n345_n500# a_n1609_n500# 0.05fF
C256 a_n661_n500# a_n187_n500# 0.15fF
C257 a_n819_n500# a_n29_n500# 0.09fF
C258 a_n503_n500# a_n345_n500# 0.56fF
C259 a_445_n500# a_1393_n500# 0.07fF
C260 a_29_n588# a_187_n588# 0.12fF
C261 a_n1551_n588# a_n603_n588# 0.01fF
C262 a_977_n588# a_n603_n588# 0.01fF
C263 a_n187_n500# a_919_n500# 0.06fF
C264 a_n1551_n588# a_n761_n588# 0.01fF
C265 a_345_n588# a_1135_n588# 0.01fF
C266 a_129_n500# a_445_n500# 0.24fF
C267 a_1293_n588# a_1451_n588# 0.12fF
C268 a_187_n588# a_1135_n588# 0.01fF
C269 a_n503_n500# a_1077_n500# 0.04fF
C270 a_761_n500# a_1551_n500# 0.09fF
C271 a_29_n588# a_1135_n588# 0.01fF
C272 a_n1451_n500# a_n1293_n500# 0.56fF
C273 a_n29_n500# a_n1609_n500# 0.04fF
C274 a_n1609_n500# a_n1135_n500# 0.15fF
C275 a_n187_n500# a_n1451_n500# 0.05fF
C276 a_n345_n500# a_n1293_n500# 0.07fF
C277 a_n503_n500# a_n1135_n500# 0.11fF
C278 a_n345_n500# a_n187_n500# 0.56fF
C279 a_n503_n500# a_n29_n500# 0.15fF
C280 a_n1551_n588# a_n129_n588# 0.01fF
C281 a_n129_n588# a_977_n588# 0.01fF
C282 a_n1235_n588# a_n919_n588# 0.04fF
C283 a_919_n500# a_1235_n500# 0.24fF
C284 a_1451_n588# a_819_n588# 0.02fF
C285 a_n1551_n588# a_n287_n588# 0.01fF
C286 a_n819_n500# a_129_n500# 0.07fF
C287 a_n287_n588# a_977_n588# 0.01fF
C288 a_1451_n588# a_661_n588# 0.01fF
C289 a_n1551_n588# a_n445_n588# 0.01fF
C290 a_n445_n588# a_977_n588# 0.01fF
C291 a_1451_n588# a_503_n588# 0.01fF
C292 a_n345_n500# a_1235_n500# 0.04fF
C293 a_n187_n500# a_1077_n500# 0.05fF
C294 a_287_n500# a_445_n500# 0.56fF
C295 a_n1393_n588# a_n1077_n588# 0.04fF
C296 a_n29_n500# a_n1293_n500# 0.05fF
C297 a_n1293_n500# a_n1135_n500# 0.56fF
C298 a_n187_n500# a_n1135_n500# 0.07fF
C299 a_n187_n500# a_n29_n500# 0.56fF
C300 a_1551_n500# a_n1743_n722# 0.30fF
C301 a_1393_n500# a_n1743_n722# 0.13fF
C302 a_1235_n500# a_n1743_n722# 0.09fF
C303 a_1077_n500# a_n1743_n722# 0.07fF
C304 a_919_n500# a_n1743_n722# 0.06fF
C305 a_761_n500# a_n1743_n722# 0.05fF
C306 a_603_n500# a_n1743_n722# 0.05fF
C307 a_445_n500# a_n1743_n722# 0.04fF
C308 a_287_n500# a_n1743_n722# 0.04fF
C309 a_129_n500# a_n1743_n722# 0.04fF
C310 a_n29_n500# a_n1743_n722# 0.02fF
C311 a_n187_n500# a_n1743_n722# 0.04fF
C312 a_n345_n500# a_n1743_n722# 0.04fF
C313 a_n503_n500# a_n1743_n722# 0.04fF
C314 a_n661_n500# a_n1743_n722# 0.05fF
C315 a_n819_n500# a_n1743_n722# 0.05fF
C316 a_n977_n500# a_n1743_n722# 0.06fF
C317 a_n1135_n500# a_n1743_n722# 0.07fF
C318 a_n1293_n500# a_n1743_n722# 0.09fF
C319 a_n1451_n500# a_n1743_n722# 0.13fF
C320 a_n1609_n500# a_n1743_n722# 0.30fF
C321 a_1451_n588# a_n1743_n722# 0.28fF
C322 a_1293_n588# a_n1743_n722# 0.23fF
C323 a_1135_n588# a_n1743_n722# 0.24fF
C324 a_977_n588# a_n1743_n722# 0.25fF
C325 a_819_n588# a_n1743_n722# 0.26fF
C326 a_661_n588# a_n1743_n722# 0.26fF
C327 a_503_n588# a_n1743_n722# 0.27fF
C328 a_345_n588# a_n1743_n722# 0.28fF
C329 a_187_n588# a_n1743_n722# 0.28fF
C330 a_29_n588# a_n1743_n722# 0.28fF
C331 a_n129_n588# a_n1743_n722# 0.28fF
C332 a_n287_n588# a_n1743_n722# 0.28fF
C333 a_n445_n588# a_n1743_n722# 0.28fF
C334 a_n603_n588# a_n1743_n722# 0.28fF
C335 a_n761_n588# a_n1743_n722# 0.28fF
C336 a_n919_n588# a_n1743_n722# 0.28fF
C337 a_n1077_n588# a_n1743_n722# 0.28fF
C338 a_n1235_n588# a_n1743_n722# 0.29fF
C339 a_n1393_n588# a_n1743_n722# 0.29fF
C340 a_n1551_n588# a_n1743_n722# 0.34fF
.ends

.subckt sky130_fd_pr__pfet_g5v0d10v5_CADZ46 a_n345_n500# a_n1609_n500# a_n1135_n500#
+ a_29_n597# a_n977_n500# a_n129_n597# a_187_n597# a_n503_n500# a_129_n500# a_n1293_n500#
+ a_n287_n597# a_819_n597# a_n1077_n597# a_287_n500# a_n661_n500# a_345_n597# a_n919_n597#
+ a_n1451_n500# a_977_n597# a_n445_n597# a_919_n500# a_n1235_n597# a_445_n500# a_503_n597#
+ w_n1809_n797# a_n603_n597# a_1077_n500# a_1135_n597# a_661_n597# a_n1393_n597# a_603_n500#
+ a_1293_n597# a_n761_n597# a_1235_n500# a_n1551_n597# a_761_n500# a_n29_n500# a_1451_n597#
+ a_1393_n500# a_n187_n500# a_1551_n500# a_n819_n500# VSUBS
X0 a_n819_n500# a_n919_n597# a_n977_n500# w_n1809_n797# sky130_fd_pr__pfet_g5v0d10v5 ad=1.45e+12p pd=1.058e+07u as=1.45e+12p ps=1.058e+07u w=5e+06u l=500000u
X1 a_n661_n500# a_n761_n597# a_n819_n500# w_n1809_n797# sky130_fd_pr__pfet_g5v0d10v5 ad=1.45e+12p pd=1.058e+07u as=0p ps=0u w=5e+06u l=500000u
X2 a_919_n500# a_819_n597# a_761_n500# w_n1809_n797# sky130_fd_pr__pfet_g5v0d10v5 ad=1.45e+12p pd=1.058e+07u as=1.45e+12p ps=1.058e+07u w=5e+06u l=500000u
X3 a_n187_n500# a_n287_n597# a_n345_n500# w_n1809_n797# sky130_fd_pr__pfet_g5v0d10v5 ad=1.45e+12p pd=1.058e+07u as=1.45e+12p ps=1.058e+07u w=5e+06u l=500000u
X4 a_761_n500# a_661_n597# a_603_n500# w_n1809_n797# sky130_fd_pr__pfet_g5v0d10v5 ad=0p pd=0u as=1.45e+12p ps=1.058e+07u w=5e+06u l=500000u
X5 a_287_n500# a_187_n597# a_129_n500# w_n1809_n797# sky130_fd_pr__pfet_g5v0d10v5 ad=1.45e+12p pd=1.058e+07u as=1.45e+12p ps=1.058e+07u w=5e+06u l=500000u
X6 a_n1293_n500# a_n1393_n597# a_n1451_n500# w_n1809_n797# sky130_fd_pr__pfet_g5v0d10v5 ad=1.45e+12p pd=1.058e+07u as=1.45e+12p ps=1.058e+07u w=5e+06u l=500000u
X7 a_1393_n500# a_1293_n597# a_1235_n500# w_n1809_n797# sky130_fd_pr__pfet_g5v0d10v5 ad=1.45e+12p pd=1.058e+07u as=1.45e+12p ps=1.058e+07u w=5e+06u l=500000u
X8 a_n345_n500# a_n445_n597# a_n503_n500# w_n1809_n797# sky130_fd_pr__pfet_g5v0d10v5 ad=0p pd=0u as=1.45e+12p ps=1.058e+07u w=5e+06u l=500000u
X9 a_129_n500# a_29_n597# a_n29_n500# w_n1809_n797# sky130_fd_pr__pfet_g5v0d10v5 ad=0p pd=0u as=1.45e+12p ps=1.058e+07u w=5e+06u l=500000u
X10 a_445_n500# a_345_n597# a_287_n500# w_n1809_n797# sky130_fd_pr__pfet_g5v0d10v5 ad=1.45e+12p pd=1.058e+07u as=0p ps=0u w=5e+06u l=500000u
X11 a_n1451_n500# a_n1551_n597# a_n1609_n500# w_n1809_n797# sky130_fd_pr__pfet_g5v0d10v5 ad=0p pd=0u as=1.45e+12p ps=1.058e+07u w=5e+06u l=500000u
X12 a_1551_n500# a_1451_n597# a_1393_n500# w_n1809_n797# sky130_fd_pr__pfet_g5v0d10v5 ad=1.45e+12p pd=1.058e+07u as=0p ps=0u w=5e+06u l=500000u
X13 a_n977_n500# a_n1077_n597# a_n1135_n500# w_n1809_n797# sky130_fd_pr__pfet_g5v0d10v5 ad=0p pd=0u as=1.45e+12p ps=1.058e+07u w=5e+06u l=500000u
X14 a_1077_n500# a_977_n597# a_919_n500# w_n1809_n797# sky130_fd_pr__pfet_g5v0d10v5 ad=1.45e+12p pd=1.058e+07u as=0p ps=0u w=5e+06u l=500000u
X15 a_n503_n500# a_n603_n597# a_n661_n500# w_n1809_n797# sky130_fd_pr__pfet_g5v0d10v5 ad=0p pd=0u as=0p ps=0u w=5e+06u l=500000u
X16 a_n29_n500# a_n129_n597# a_n187_n500# w_n1809_n797# sky130_fd_pr__pfet_g5v0d10v5 ad=0p pd=0u as=0p ps=0u w=5e+06u l=500000u
X17 a_603_n500# a_503_n597# a_445_n500# w_n1809_n797# sky130_fd_pr__pfet_g5v0d10v5 ad=0p pd=0u as=0p ps=0u w=5e+06u l=500000u
X18 a_n1135_n500# a_n1235_n597# a_n1293_n500# w_n1809_n797# sky130_fd_pr__pfet_g5v0d10v5 ad=0p pd=0u as=0p ps=0u w=5e+06u l=500000u
X19 a_1235_n500# a_1135_n597# a_1077_n500# w_n1809_n797# sky130_fd_pr__pfet_g5v0d10v5 ad=0p pd=0u as=0p ps=0u w=5e+06u l=500000u
C0 a_1077_n500# a_n187_n500# 0.05fF
C1 a_1235_n500# a_n345_n500# 0.04fF
C2 a_n919_n597# a_n129_n597# 0.01fF
C3 a_187_n597# a_n761_n597# 0.01fF
C4 a_503_n597# a_n129_n597# 0.02fF
C5 a_1293_n597# a_29_n597# 0.01fF
C6 a_761_n500# a_1077_n500# 0.24fF
C7 a_445_n500# a_n503_n500# 0.07fF
C8 a_287_n500# a_129_n500# 0.56fF
C9 a_1393_n500# a_1551_n500# 0.56fF
C10 a_n603_n597# a_661_n597# 0.01fF
C11 a_503_n597# a_1135_n597# 0.02fF
C12 a_n661_n500# a_n1293_n500# 0.11fF
C13 w_n1809_n797# a_503_n597# 0.23fF
C14 w_n1809_n797# a_n919_n597# 0.24fF
C15 a_n1077_n597# a_n129_n597# 0.01fF
C16 a_n661_n500# w_n1809_n797# 0.05fF
C17 a_977_n597# a_345_n597# 0.02fF
C18 a_603_n500# a_n345_n500# 0.07fF
C19 a_n603_n597# a_n1235_n597# 0.02fF
C20 a_n977_n500# a_n1609_n500# 0.11fF
C21 a_n503_n500# a_129_n500# 0.11fF
C22 w_n1809_n797# a_n1077_n597# 0.24fF
C23 a_n1135_n500# a_n1293_n500# 0.56fF
C24 a_n1135_n500# w_n1809_n797# 0.07fF
C25 a_n1451_n500# a_n503_n500# 0.07fF
C26 a_1393_n500# a_n187_n500# 0.04fF
C27 a_n29_n500# a_1235_n500# 0.05fF
C28 a_n919_n597# a_345_n597# 0.01fF
C29 a_661_n597# a_n761_n597# 0.01fF
C30 a_187_n597# a_29_n597# 0.12fF
C31 a_1135_n597# a_n129_n597# 0.01fF
C32 a_819_n597# a_977_n597# 0.12fF
C33 a_n603_n597# a_n761_n597# 0.12fF
C34 a_503_n597# a_345_n597# 0.12fF
C35 a_761_n500# a_1393_n500# 0.11fF
C36 w_n1809_n797# a_n129_n597# 0.24fF
C37 a_n1393_n597# a_187_n597# 0.01fF
C38 a_n345_n500# a_n819_n500# 0.15fF
C39 w_n1809_n797# a_n1293_n500# 0.09fF
C40 w_n1809_n797# a_1135_n597# 0.20fF
C41 a_919_n500# a_1077_n500# 0.56fF
C42 a_n1077_n597# a_345_n597# 0.01fF
C43 a_n1235_n597# a_n761_n597# 0.02fF
C44 a_445_n500# a_129_n500# 0.24fF
C45 a_503_n597# a_819_n597# 0.04fF
C46 a_n29_n500# a_603_n500# 0.11fF
C47 a_n661_n500# a_n977_n500# 0.24fF
C48 a_n345_n500# a_n187_n500# 0.56fF
C49 a_n129_n597# a_345_n597# 0.02fF
C50 a_761_n500# a_n345_n500# 0.06fF
C51 a_287_n500# a_1235_n500# 0.07fF
C52 a_n29_n500# a_1551_n500# 0.04fF
C53 a_n603_n597# a_29_n597# 0.02fF
C54 a_1135_n597# a_345_n597# 0.01fF
C55 a_661_n597# a_29_n597# 0.02fF
C56 w_n1809_n797# a_345_n597# 0.23fF
C57 a_n1393_n597# a_n603_n597# 0.01fF
C58 a_n29_n500# a_n819_n500# 0.09fF
C59 a_n1451_n500# a_129_n500# 0.04fF
C60 a_n1135_n500# a_n977_n500# 0.56fF
C61 a_n287_n597# a_977_n597# 0.01fF
C62 a_819_n597# a_n129_n597# 0.01fF
C63 a_n603_n597# a_n1551_n597# 0.01fF
C64 a_919_n500# a_1393_n500# 0.15fF
C65 a_n1235_n597# a_29_n597# 0.01fF
C66 a_1135_n597# a_819_n597# 0.04fF
C67 a_n1393_n597# a_n1235_n597# 0.12fF
C68 a_287_n500# a_603_n500# 0.24fF
C69 w_n1809_n797# a_819_n597# 0.21fF
C70 a_n977_n500# a_n1293_n500# 0.24fF
C71 a_n1551_n597# a_n1235_n597# 0.04fF
C72 a_n761_n597# a_29_n597# 0.01fF
C73 a_n977_n500# w_n1809_n797# 0.06fF
C74 a_n29_n500# a_n187_n500# 0.56fF
C75 a_n1609_n500# a_n345_n500# 0.05fF
C76 a_n287_n597# a_n919_n597# 0.02fF
C77 a_503_n597# a_n287_n597# 0.01fF
C78 a_n29_n500# a_761_n500# 0.09fF
C79 a_n1393_n597# a_n761_n597# 0.02fF
C80 a_287_n500# a_1551_n500# 0.05fF
C81 a_1293_n597# a_1451_n597# 0.12fF
C82 w_n1809_n797# a_1077_n500# 0.07fF
C83 a_n1551_n597# a_n761_n597# 0.01fF
C84 a_919_n500# a_n345_n500# 0.05fF
C85 a_287_n500# a_n819_n500# 0.06fF
C86 a_n503_n500# a_603_n500# 0.06fF
C87 a_n287_n597# a_n1077_n597# 0.01fF
C88 a_445_n500# a_1235_n500# 0.09fF
C89 a_819_n597# a_345_n597# 0.02fF
C90 a_n445_n597# a_977_n597# 0.01fF
C91 a_n287_n597# a_n129_n597# 0.12fF
C92 a_287_n500# a_n187_n500# 0.15fF
C93 a_n503_n500# a_n819_n500# 0.24fF
C94 a_n1609_n500# a_n29_n500# 0.04fF
C95 a_n661_n500# a_n345_n500# 0.24fF
C96 a_1135_n597# a_n287_n597# 0.01fF
C97 a_129_n500# a_1235_n500# 0.06fF
C98 a_445_n500# a_603_n500# 0.56fF
C99 a_287_n500# a_761_n500# 0.15fF
C100 a_n1393_n597# a_29_n597# 0.01fF
C101 w_n1809_n797# a_n287_n597# 0.24fF
C102 a_187_n597# a_1451_n597# 0.01fF
C103 w_n1809_n797# a_1393_n500# 0.13fF
C104 a_n1551_n597# a_29_n597# 0.01fF
C105 a_n445_n597# a_n919_n597# 0.02fF
C106 a_503_n597# a_n445_n597# 0.01fF
C107 a_n29_n500# a_919_n500# 0.07fF
C108 a_n1393_n597# a_n1551_n597# 0.12fF
C109 a_445_n500# a_1551_n500# 0.06fF
C110 a_1293_n597# a_977_n597# 0.04fF
C111 a_n1135_n500# a_n345_n500# 0.09fF
C112 a_n503_n500# a_n187_n500# 0.24fF
C113 a_129_n500# a_603_n500# 0.15fF
C114 a_445_n500# a_n819_n500# 0.05fF
C115 a_n503_n500# a_761_n500# 0.05fF
C116 a_n445_n597# a_n1077_n597# 0.02fF
C117 a_n287_n597# a_345_n597# 0.02fF
C118 a_n1293_n500# a_n345_n500# 0.07fF
C119 a_1293_n597# a_503_n597# 0.01fF
C120 a_n661_n500# a_n29_n500# 0.11fF
C121 a_129_n500# a_1551_n500# 0.05fF
C122 a_n445_n597# a_n129_n597# 0.04fF
C123 w_n1809_n797# a_n345_n500# 0.04fF
C124 a_661_n597# a_1451_n597# 0.01fF
C125 a_129_n500# a_n819_n500# 0.07fF
C126 a_445_n500# a_n187_n500# 0.11fF
C127 a_1135_n597# a_n445_n597# 0.01fF
C128 a_819_n597# a_n287_n597# 0.01fF
C129 a_287_n500# a_919_n500# 0.11fF
C130 a_445_n500# a_761_n500# 0.24fF
C131 w_n1809_n797# a_n445_n597# 0.24fF
C132 a_187_n597# a_977_n597# 0.01fF
C133 a_n1451_n500# a_n819_n500# 0.11fF
C134 a_n1135_n500# a_n29_n500# 0.06fF
C135 a_n1609_n500# a_n503_n500# 0.06fF
C136 a_1293_n597# a_n129_n597# 0.01fF
C137 a_129_n500# a_n187_n500# 0.24fF
C138 a_1077_n500# a_1393_n500# 0.24fF
C139 a_n503_n500# a_919_n500# 0.05fF
C140 a_129_n500# a_761_n500# 0.11fF
C141 a_n1293_n500# a_n29_n500# 0.05fF
C142 a_187_n597# a_n919_n597# 0.01fF
C143 a_187_n597# a_503_n597# 0.04fF
C144 a_1293_n597# a_1135_n597# 0.12fF
C145 a_n661_n500# a_287_n500# 0.07fF
C146 a_n445_n597# a_345_n597# 0.01fF
C147 a_n1451_n500# a_n187_n500# 0.05fF
C148 w_n1809_n797# a_n29_n500# 0.02fF
C149 w_n1809_n797# a_1293_n597# 0.19fF
C150 a_187_n597# a_n1077_n597# 0.01fF
C151 a_n977_n500# a_n345_n500# 0.11fF
C152 a_661_n597# a_977_n597# 0.04fF
C153 a_n603_n597# a_977_n597# 0.01fF
C154 a_n1135_n500# a_287_n500# 0.05fF
C155 a_603_n500# a_1235_n500# 0.11fF
C156 a_819_n597# a_n445_n597# 0.01fF
C157 a_n661_n500# a_n503_n500# 0.56fF
C158 a_445_n500# a_919_n500# 0.15fF
C159 a_1077_n500# a_n345_n500# 0.05fF
C160 a_187_n597# a_n129_n597# 0.04fF
C161 a_1293_n597# a_345_n597# 0.01fF
C162 a_1235_n500# a_1551_n500# 0.24fF
C163 a_1451_n597# a_29_n597# 0.01fF
C164 a_287_n500# a_n1293_n500# 0.04fF
C165 a_n919_n597# a_661_n597# 0.01fF
C166 a_503_n597# a_661_n597# 0.12fF
C167 a_n603_n597# a_n919_n597# 0.04fF
C168 a_503_n597# a_n603_n597# 0.01fF
C169 a_187_n597# a_1135_n597# 0.01fF
C170 a_287_n500# w_n1809_n797# 0.04fF
C171 a_n1451_n500# a_n1609_n500# 0.56fF
C172 w_n1809_n797# a_187_n597# 0.24fF
C173 a_n1135_n500# a_n503_n500# 0.11fF
C174 a_129_n500# a_919_n500# 0.09fF
C175 a_1293_n597# a_819_n597# 0.02fF
C176 a_n661_n500# a_445_n500# 0.06fF
C177 a_n919_n597# a_n1235_n597# 0.04fF
C178 a_n603_n597# a_n1077_n597# 0.02fF
C179 a_n977_n500# a_n29_n500# 0.07fF
C180 a_603_n500# a_1551_n500# 0.07fF
C181 a_n1293_n500# a_n503_n500# 0.09fF
C182 w_n1809_n797# a_n503_n500# 0.04fF
C183 a_1235_n500# a_n187_n500# 0.05fF
C184 a_603_n500# a_n819_n500# 0.05fF
C185 a_n29_n500# a_1077_n500# 0.06fF
C186 a_n919_n597# a_n761_n597# 0.12fF
C187 a_661_n597# a_n129_n597# 0.01fF
C188 a_187_n597# a_345_n597# 0.12fF
C189 a_n603_n597# a_n129_n597# 0.02fF
C190 a_503_n597# a_n761_n597# 0.01fF
C191 a_n1077_n597# a_n1235_n597# 0.12fF
C192 a_n1135_n500# a_445_n500# 0.04fF
C193 a_761_n500# a_1235_n500# 0.15fF
C194 a_n287_n597# a_n445_n597# 0.12fF
C195 a_n661_n500# a_129_n500# 0.09fF
C196 a_1135_n597# a_661_n597# 0.02fF
C197 w_n1809_n797# a_661_n597# 0.22fF
C198 w_n1809_n797# a_n603_n597# 0.24fF
C199 a_n661_n500# a_n1451_n500# 0.09fF
C200 a_n1235_n597# a_n129_n597# 0.01fF
C201 a_n1077_n597# a_n761_n597# 0.04fF
C202 a_977_n597# a_29_n597# 0.01fF
C203 a_187_n597# a_819_n597# 0.02fF
C204 a_603_n500# a_n187_n500# 0.09fF
C205 a_445_n500# w_n1809_n797# 0.04fF
C206 a_n1135_n500# a_129_n500# 0.05fF
C207 a_n977_n500# a_287_n500# 0.05fF
C208 a_603_n500# a_761_n500# 0.56fF
C209 w_n1809_n797# a_n1235_n597# 0.24fF
C210 a_n129_n597# a_n761_n597# 0.02fF
C211 a_1293_n597# a_n287_n597# 0.01fF
C212 a_n1135_n500# a_n1451_n500# 0.24fF
C213 a_n29_n500# a_1393_n500# 0.05fF
C214 a_287_n500# a_1077_n500# 0.09fF
C215 a_n919_n597# a_29_n597# 0.01fF
C216 a_661_n597# a_345_n597# 0.04fF
C217 a_n603_n597# a_345_n597# 0.01fF
C218 a_503_n597# a_29_n597# 0.02fF
C219 a_761_n500# a_1551_n500# 0.09fF
C220 w_n1809_n797# a_n761_n597# 0.24fF
C221 a_n1293_n500# a_129_n500# 0.05fF
C222 a_n187_n500# a_n819_n500# 0.11fF
C223 a_n1393_n597# a_n919_n597# 0.02fF
C224 w_n1809_n797# a_129_n500# 0.04fF
C225 a_n977_n500# a_n503_n500# 0.15fF
C226 a_761_n500# a_n819_n500# 0.04fF
C227 a_n1551_n597# a_n919_n597# 0.02fF
C228 a_n1451_n500# a_n1293_n500# 0.56fF
C229 a_919_n500# a_1235_n500# 0.24fF
C230 a_n1077_n597# a_29_n597# 0.01fF
C231 a_n1235_n597# a_345_n597# 0.01fF
C232 a_n1451_n500# w_n1809_n797# 0.13fF
C233 a_n603_n597# a_819_n597# 0.01fF
C234 a_819_n597# a_661_n597# 0.12fF
C235 a_n1393_n597# a_n1077_n597# 0.04fF
C236 a_n503_n500# a_1077_n500# 0.04fF
C237 a_n1551_n597# a_n1077_n597# 0.02fF
C238 a_n129_n597# a_29_n597# 0.12fF
C239 a_n761_n597# a_345_n597# 0.01fF
C240 a_n29_n500# a_n345_n500# 0.24fF
C241 a_187_n597# a_n287_n597# 0.02fF
C242 a_761_n500# a_n187_n500# 0.07fF
C243 a_n1393_n597# a_n129_n597# 0.01fF
C244 a_n977_n500# a_445_n500# 0.05fF
C245 a_287_n500# a_1393_n500# 0.06fF
C246 a_1135_n597# a_29_n597# 0.01fF
C247 a_603_n500# a_919_n500# 0.24fF
C248 w_n1809_n797# a_29_n597# 0.24fF
C249 a_n1551_n597# a_n129_n597# 0.01fF
C250 a_n1609_n500# a_n819_n500# 0.09fF
C251 a_n1393_n597# w_n1809_n797# 0.25fF
C252 a_445_n500# a_1077_n500# 0.11fF
C253 a_819_n597# a_n761_n597# 0.01fF
C254 a_919_n500# a_1551_n500# 0.11fF
C255 w_n1809_n797# a_n1551_n597# 0.30fF
C256 a_n977_n500# a_129_n500# 0.06fF
C257 a_n661_n500# a_603_n500# 0.05fF
C258 a_345_n597# a_29_n597# 0.04fF
C259 a_n977_n500# a_n1451_n500# 0.15fF
C260 a_287_n500# a_n345_n500# 0.11fF
C261 a_n1609_n500# a_n187_n500# 0.05fF
C262 a_n287_n597# a_661_n597# 0.01fF
C263 a_n603_n597# a_n287_n597# 0.04fF
C264 a_129_n500# a_1077_n500# 0.07fF
C265 w_n1809_n797# a_1235_n500# 0.09fF
C266 a_187_n597# a_n445_n597# 0.02fF
C267 a_919_n500# a_n187_n500# 0.06fF
C268 a_n287_n597# a_n1235_n597# 0.01fF
C269 a_n661_n500# a_n819_n500# 0.56fF
C270 a_445_n500# a_1393_n500# 0.07fF
C271 a_761_n500# a_919_n500# 0.56fF
C272 a_819_n597# a_29_n597# 0.01fF
C273 a_n503_n500# a_n345_n500# 0.56fF
C274 a_1451_n597# a_977_n597# 0.02fF