* NGSPICE file created from analog_top.ext - technology: sky130A

.subckt sky130_fd_pr__nfet_g5v0d10v5_BRTJC6 a_n345_n500# a_1135_n588# a_n603_n588#
+ a_n1393_n588# a_n1609_n500# a_661_n588# a_n1135_n500# a_n977_n500# a_1293_n588#
+ a_n761_n588# a_n503_n500# a_n1551_n588# a_129_n500# a_n1293_n500# a_287_n500# a_n661_n500#
+ a_1451_n588# a_n1451_n500# a_919_n500# a_445_n500# a_1077_n500# a_29_n588# a_n129_n588#
+ a_603_n500# a_187_n588# a_1235_n500# a_n287_n588# a_761_n500# a_819_n588# a_345_n588#
+ a_n1077_n588# a_n29_n500# a_1393_n500# a_n919_n588# a_n1743_n722# a_n187_n500# a_977_n588#
+ a_n445_n588# a_503_n588# a_n1235_n588# a_1551_n500# a_n819_n500#
X0 a_n819_n500# a_n919_n588# a_n977_n500# a_n1743_n722# sky130_fd_pr__nfet_g5v0d10v5 ad=1.45e+12p pd=1.058e+07u as=1.45e+12p ps=1.058e+07u w=5e+06u l=500000u
X1 a_n661_n500# a_n761_n588# a_n819_n500# a_n1743_n722# sky130_fd_pr__nfet_g5v0d10v5 ad=1.45e+12p pd=1.058e+07u as=0p ps=0u w=5e+06u l=500000u
X2 a_919_n500# a_819_n588# a_761_n500# a_n1743_n722# sky130_fd_pr__nfet_g5v0d10v5 ad=1.45e+12p pd=1.058e+07u as=1.45e+12p ps=1.058e+07u w=5e+06u l=500000u
X3 a_n187_n500# a_n287_n588# a_n345_n500# a_n1743_n722# sky130_fd_pr__nfet_g5v0d10v5 ad=1.45e+12p pd=1.058e+07u as=1.45e+12p ps=1.058e+07u w=5e+06u l=500000u
X4 a_761_n500# a_661_n588# a_603_n500# a_n1743_n722# sky130_fd_pr__nfet_g5v0d10v5 ad=0p pd=0u as=1.45e+12p ps=1.058e+07u w=5e+06u l=500000u
X5 a_287_n500# a_187_n588# a_129_n500# a_n1743_n722# sky130_fd_pr__nfet_g5v0d10v5 ad=1.45e+12p pd=1.058e+07u as=1.45e+12p ps=1.058e+07u w=5e+06u l=500000u
X6 a_n1293_n500# a_n1393_n588# a_n1451_n500# a_n1743_n722# sky130_fd_pr__nfet_g5v0d10v5 ad=1.45e+12p pd=1.058e+07u as=1.45e+12p ps=1.058e+07u w=5e+06u l=500000u
X7 a_1393_n500# a_1293_n588# a_1235_n500# a_n1743_n722# sky130_fd_pr__nfet_g5v0d10v5 ad=1.45e+12p pd=1.058e+07u as=1.45e+12p ps=1.058e+07u w=5e+06u l=500000u
X8 a_n345_n500# a_n445_n588# a_n503_n500# a_n1743_n722# sky130_fd_pr__nfet_g5v0d10v5 ad=0p pd=0u as=1.45e+12p ps=1.058e+07u w=5e+06u l=500000u
X9 a_129_n500# a_29_n588# a_n29_n500# a_n1743_n722# sky130_fd_pr__nfet_g5v0d10v5 ad=0p pd=0u as=1.45e+12p ps=1.058e+07u w=5e+06u l=500000u
X10 a_445_n500# a_345_n588# a_287_n500# a_n1743_n722# sky130_fd_pr__nfet_g5v0d10v5 ad=1.45e+12p pd=1.058e+07u as=0p ps=0u w=5e+06u l=500000u
X11 a_n1451_n500# a_n1551_n588# a_n1609_n500# a_n1743_n722# sky130_fd_pr__nfet_g5v0d10v5 ad=0p pd=0u as=1.45e+12p ps=1.058e+07u w=5e+06u l=500000u
X12 a_1551_n500# a_1451_n588# a_1393_n500# a_n1743_n722# sky130_fd_pr__nfet_g5v0d10v5 ad=1.45e+12p pd=1.058e+07u as=0p ps=0u w=5e+06u l=500000u
X13 a_n977_n500# a_n1077_n588# a_n1135_n500# a_n1743_n722# sky130_fd_pr__nfet_g5v0d10v5 ad=0p pd=0u as=1.45e+12p ps=1.058e+07u w=5e+06u l=500000u
X14 a_n503_n500# a_n603_n588# a_n661_n500# a_n1743_n722# sky130_fd_pr__nfet_g5v0d10v5 ad=0p pd=0u as=0p ps=0u w=5e+06u l=500000u
X15 a_1077_n500# a_977_n588# a_919_n500# a_n1743_n722# sky130_fd_pr__nfet_g5v0d10v5 ad=1.45e+12p pd=1.058e+07u as=0p ps=0u w=5e+06u l=500000u
X16 a_n29_n500# a_n129_n588# a_n187_n500# a_n1743_n722# sky130_fd_pr__nfet_g5v0d10v5 ad=0p pd=0u as=0p ps=0u w=5e+06u l=500000u
X17 a_603_n500# a_503_n588# a_445_n500# a_n1743_n722# sky130_fd_pr__nfet_g5v0d10v5 ad=0p pd=0u as=0p ps=0u w=5e+06u l=500000u
X18 a_n1135_n500# a_n1235_n588# a_n1293_n500# a_n1743_n722# sky130_fd_pr__nfet_g5v0d10v5 ad=0p pd=0u as=0p ps=0u w=5e+06u l=500000u
X19 a_1235_n500# a_1135_n588# a_1077_n500# a_n1743_n722# sky130_fd_pr__nfet_g5v0d10v5 ad=0p pd=0u as=0p ps=0u w=5e+06u l=500000u
C0 a_n661_n500# a_919_n500# 0.04fF
C1 a_n1551_n588# a_n129_n588# 0.01fF
C2 a_n1077_n588# a_n129_n588# 0.01fF
C3 a_n287_n588# a_1293_n588# 0.01fF
C4 a_761_n500# a_919_n500# 0.56fF
C5 a_n503_n500# a_n1451_n500# 0.07fF
C6 a_n819_n500# a_n1135_n500# 0.24fF
C7 a_n661_n500# a_n1293_n500# 0.11fF
C8 a_287_n500# a_1551_n500# 0.05fF
C9 a_977_n588# a_1451_n588# 0.02fF
C10 a_661_n588# a_n919_n588# 0.01fF
C11 a_n287_n588# a_977_n588# 0.01fF
C12 a_445_n500# a_1235_n500# 0.09fF
C13 a_n977_n500# a_287_n500# 0.05fF
C14 a_n503_n500# a_n187_n500# 0.24fF
C15 a_n661_n500# a_n29_n500# 0.11fF
C16 a_n29_n500# a_761_n500# 0.09fF
C17 a_503_n588# a_n919_n588# 0.01fF
C18 a_n445_n588# a_977_n588# 0.01fF
C19 a_345_n588# a_n919_n588# 0.01fF
C20 a_n345_n500# a_919_n500# 0.05fF
C21 a_n1393_n588# a_n603_n588# 0.01fF
C22 a_n1393_n588# a_n761_n588# 0.02fF
C23 a_n345_n500# a_n1293_n500# 0.07fF
C24 a_n187_n500# a_n1451_n500# 0.05fF
C25 a_n503_n500# a_n1135_n500# 0.11fF
C26 a_761_n500# a_1077_n500# 0.24fF
C27 a_445_n500# a_1551_n500# 0.06fF
C28 a_n345_n500# a_n29_n500# 0.24fF
C29 a_n1393_n588# a_n287_n588# 0.01fF
C30 a_n1451_n500# a_n1135_n500# 0.24fF
C31 a_n977_n500# a_445_n500# 0.05fF
C32 a_n661_n500# a_129_n500# 0.09fF
C33 a_n1393_n588# a_n445_n588# 0.01fF
C34 a_29_n588# a_187_n588# 0.12fF
C35 a_129_n500# a_761_n500# 0.11fF
C36 a_n29_n500# a_919_n500# 0.07fF
C37 a_n661_n500# a_603_n500# 0.05fF
C38 a_603_n500# a_761_n500# 0.56fF
C39 a_n129_n588# a_187_n588# 0.04fF
C40 a_n187_n500# a_n1135_n500# 0.07fF
C41 a_n29_n500# a_n1293_n500# 0.05fF
C42 a_n1393_n588# a_n1235_n588# 0.12fF
C43 a_n345_n500# a_1077_n500# 0.05fF
C44 a_761_n500# a_1393_n500# 0.11fF
C45 a_n129_n588# a_29_n588# 0.12fF
C46 a_n977_n500# a_n819_n500# 0.56fF
C47 a_919_n500# a_1077_n500# 0.56fF
C48 a_n1393_n588# a_n1551_n588# 0.12fF
C49 a_n1077_n588# a_n1393_n588# 0.04fF
C50 a_661_n588# a_819_n588# 0.12fF
C51 a_n345_n500# a_129_n500# 0.15fF
C52 a_503_n588# a_819_n588# 0.04fF
C53 a_n345_n500# a_603_n500# 0.07fF
C54 a_n603_n588# a_661_n588# 0.01fF
C55 a_n661_n500# a_287_n500# 0.07fF
C56 a_345_n588# a_819_n588# 0.02fF
C57 a_1293_n588# a_187_n588# 0.01fF
C58 a_n29_n500# a_1077_n500# 0.06fF
C59 a_129_n500# a_919_n500# 0.09fF
C60 a_n187_n500# a_1235_n500# 0.05fF
C61 a_287_n500# a_761_n500# 0.15fF
C62 a_n603_n588# a_503_n588# 0.01fF
C63 a_n761_n588# a_661_n588# 0.01fF
C64 a_603_n500# a_919_n500# 0.24fF
C65 a_1293_n588# a_29_n588# 0.01fF
C66 a_129_n500# a_n1293_n500# 0.05fF
C67 a_n603_n588# a_345_n588# 0.01fF
C68 a_n761_n588# a_503_n588# 0.01fF
C69 a_n977_n500# a_n503_n500# 0.15fF
C70 a_919_n500# a_1393_n500# 0.15fF
C71 a_1451_n588# a_661_n588# 0.01fF
C72 a_1293_n588# a_n129_n588# 0.01fF
C73 a_977_n588# a_187_n588# 0.01fF
C74 a_n761_n588# a_345_n588# 0.01fF
C75 a_1451_n588# a_503_n588# 0.01fF
C76 a_n29_n500# a_129_n500# 0.56fF
C77 a_n287_n588# a_661_n588# 0.01fF
C78 a_1135_n588# a_819_n588# 0.04fF
C79 a_977_n588# a_29_n588# 0.01fF
C80 a_1451_n588# a_345_n588# 0.01fF
C81 a_n29_n500# a_603_n500# 0.11fF
C82 a_n445_n588# a_661_n588# 0.01fF
C83 a_n287_n588# a_503_n588# 0.01fF
C84 a_977_n588# a_n129_n588# 0.01fF
C85 a_n819_n500# a_n1609_n500# 0.09fF
C86 a_n345_n500# a_287_n500# 0.11fF
C87 a_n977_n500# a_n1451_n500# 0.15fF
C88 a_n29_n500# a_1393_n500# 0.05fF
C89 a_n445_n588# a_503_n588# 0.01fF
C90 a_n287_n588# a_345_n588# 0.02fF
C91 a_n661_n500# a_445_n500# 0.06fF
C92 a_n445_n588# a_345_n588# 0.01fF
C93 a_287_n500# a_919_n500# 0.11fF
C94 a_129_n500# a_1077_n500# 0.07fF
C95 a_445_n500# a_761_n500# 0.24fF
C96 a_n977_n500# a_n187_n500# 0.09fF
C97 a_603_n500# a_1077_n500# 0.15fF
C98 a_1135_n588# a_1451_n588# 0.04fF
C99 a_287_n500# a_n1293_n500# 0.04fF
C100 a_345_n588# a_n1235_n588# 0.01fF
C101 a_1077_n500# a_1393_n500# 0.24fF
C102 a_n1393_n588# a_187_n588# 0.01fF
C103 a_n287_n588# a_1135_n588# 0.01fF
C104 a_n1393_n588# a_29_n588# 0.01fF
C105 a_n1077_n588# a_503_n588# 0.01fF
C106 a_n977_n500# a_n1135_n500# 0.56fF
C107 a_n29_n500# a_287_n500# 0.24fF
C108 a_n503_n500# a_n1609_n500# 0.06fF
C109 a_n819_n500# a_n661_n500# 0.56fF
C110 a_n445_n588# a_1135_n588# 0.01fF
C111 a_977_n588# a_1293_n588# 0.04fF
C112 a_n819_n500# a_761_n500# 0.04fF
C113 a_n603_n588# a_n919_n588# 0.04fF
C114 a_n1393_n588# a_n129_n588# 0.01fF
C115 a_129_n500# a_603_n500# 0.15fF
C116 a_n1077_n588# a_345_n588# 0.01fF
C117 a_n345_n500# a_445_n500# 0.09fF
C118 a_129_n500# a_1393_n500# 0.05fF
C119 a_n761_n588# a_n919_n588# 0.12fF
C120 a_603_n500# a_1393_n500# 0.09fF
C121 a_n1609_n500# a_n1451_n500# 0.56fF
C122 a_445_n500# a_919_n500# 0.15fF
C123 a_287_n500# a_1077_n500# 0.09fF
C124 a_1235_n500# a_1551_n500# 0.24fF
C125 a_n287_n588# a_n919_n588# 0.02fF
C126 a_n187_n500# a_n1609_n500# 0.05fF
C127 a_n661_n500# a_n503_n500# 0.56fF
C128 a_n819_n500# a_n345_n500# 0.15fF
C129 a_n503_n500# a_761_n500# 0.05fF
C130 a_n445_n588# a_n919_n588# 0.02fF
C131 a_129_n500# a_287_n500# 0.56fF
C132 a_n29_n500# a_445_n500# 0.15fF
C133 a_n1235_n588# a_n919_n588# 0.04fF
C134 a_287_n500# a_603_n500# 0.24fF
C135 a_n1609_n500# a_n1135_n500# 0.15fF
C136 a_n819_n500# a_n1293_n500# 0.15fF
C137 a_n661_n500# a_n1451_n500# 0.09fF
C138 a_287_n500# a_1393_n500# 0.06fF
C139 a_187_n588# a_661_n588# 0.02fF
C140 a_445_n500# a_1077_n500# 0.11fF
C141 a_n1077_n588# a_n919_n588# 0.12fF
C142 a_n1551_n588# a_n919_n588# 0.02fF
C143 a_n503_n500# a_n345_n500# 0.56fF
C144 a_n661_n500# a_n187_n500# 0.15fF
C145 a_n819_n500# a_n29_n500# 0.09fF
C146 a_n187_n500# a_761_n500# 0.07fF
C147 a_187_n588# a_503_n588# 0.04fF
C148 a_29_n588# a_661_n588# 0.02fF
C149 a_187_n588# a_345_n588# 0.12fF
C150 a_29_n588# a_503_n588# 0.02fF
C151 a_n129_n588# a_661_n588# 0.01fF
C152 a_n503_n500# a_919_n500# 0.05fF
C153 a_n603_n588# a_819_n588# 0.01fF
C154 a_n129_n588# a_503_n588# 0.02fF
C155 a_29_n588# a_345_n588# 0.04fF
C156 a_n661_n500# a_n1135_n500# 0.15fF
C157 a_n345_n500# a_n1451_n500# 0.06fF
C158 a_n503_n500# a_n1293_n500# 0.09fF
C159 a_129_n500# a_445_n500# 0.24fF
C160 a_n761_n588# a_819_n588# 0.01fF
C161 a_n129_n588# a_345_n588# 0.02fF
C162 a_445_n500# a_603_n500# 0.56fF
C163 a_1451_n588# a_819_n588# 0.02fF
C164 a_445_n500# a_1393_n500# 0.07fF
C165 a_n503_n500# a_n29_n500# 0.15fF
C166 a_n345_n500# a_n187_n500# 0.56fF
C167 a_n761_n588# a_n603_n588# 0.12fF
C168 a_1135_n588# a_187_n588# 0.01fF
C169 a_n1451_n500# a_n1293_n500# 0.56fF
C170 a_n287_n588# a_819_n588# 0.01fF
C171 a_1135_n588# a_29_n588# 0.01fF
C172 a_n819_n500# a_129_n500# 0.07fF
C173 a_n187_n500# a_919_n500# 0.06fF
C174 a_n445_n588# a_819_n588# 0.01fF
C175 a_1293_n588# a_661_n588# 0.02fF
C176 a_1135_n588# a_n129_n588# 0.01fF
C177 a_n819_n500# a_603_n500# 0.05fF
C178 a_n603_n588# a_n287_n588# 0.04fF
C179 a_n29_n500# a_n1451_n500# 0.05fF
C180 a_n187_n500# a_n1293_n500# 0.06fF
C181 a_n345_n500# a_n1135_n500# 0.09fF
C182 a_1293_n588# a_503_n588# 0.01fF
C183 a_n503_n500# a_1077_n500# 0.04fF
C184 a_761_n500# a_1235_n500# 0.15fF
C185 a_n603_n588# a_n445_n588# 0.12fF
C186 a_n761_n588# a_n287_n588# 0.02fF
C187 a_1293_n588# a_345_n588# 0.01fF
C188 a_287_n500# a_445_n500# 0.56fF
C189 a_977_n588# a_661_n588# 0.04fF
C190 a_n761_n588# a_n445_n588# 0.04fF
C191 a_n187_n500# a_n29_n500# 0.56fF
C192 a_n977_n500# a_n1609_n500# 0.11fF
C193 a_n603_n588# a_n1235_n588# 0.02fF
C194 a_187_n588# a_n919_n588# 0.01fF
C195 a_977_n588# a_503_n588# 0.02fF
C196 a_n1293_n500# a_n1135_n500# 0.56fF
C197 a_n761_n588# a_n1235_n588# 0.02fF
C198 a_n503_n500# a_129_n500# 0.11fF
C199 a_29_n588# a_n919_n588# 0.01fF
C200 a_977_n588# a_345_n588# 0.02fF
C201 a_n503_n500# a_603_n500# 0.06fF
C202 a_n445_n588# a_n287_n588# 0.12fF
C203 a_n129_n588# a_n919_n588# 0.01fF
C204 a_1135_n588# a_1293_n588# 0.12fF
C205 a_n29_n500# a_n1135_n500# 0.06fF
C206 a_n819_n500# a_287_n500# 0.06fF
C207 a_n1077_n588# a_n603_n588# 0.02fF
C208 a_n603_n588# a_n1551_n588# 0.01fF
C209 a_n345_n500# a_1235_n500# 0.04fF
C210 a_n187_n500# a_1077_n500# 0.05fF
C211 a_761_n500# a_1551_n500# 0.09fF
C212 a_n1077_n588# a_n761_n588# 0.04fF
C213 a_n761_n588# a_n1551_n588# 0.01fF
C214 a_n287_n588# a_n1235_n588# 0.01fF
C215 a_129_n500# a_n1451_n500# 0.04fF
C216 a_n445_n588# a_n1235_n588# 0.01fF
C217 a_n977_n500# a_n661_n500# 0.24fF
C218 a_919_n500# a_1235_n500# 0.24fF
C219 a_977_n588# a_1135_n588# 0.12fF
C220 a_n187_n500# a_129_n500# 0.24fF
C221 a_n1077_n588# a_n287_n588# 0.01fF
C222 a_n1551_n588# a_n287_n588# 0.01fF
C223 a_n187_n500# a_603_n500# 0.09fF
C224 a_n1077_n588# a_n445_n588# 0.02fF
C225 a_n1551_n588# a_n445_n588# 0.01fF
C226 a_n503_n500# a_287_n500# 0.09fF
C227 a_n187_n500# a_1393_n500# 0.04fF
C228 a_n29_n500# a_1235_n500# 0.05fF
C229 a_n1077_n588# a_n1235_n588# 0.12fF
C230 a_n1551_n588# a_n1235_n588# 0.04fF
C231 a_129_n500# a_n1135_n500# 0.05fF
C232 a_n819_n500# a_445_n500# 0.05fF
C233 a_n977_n500# a_n345_n500# 0.11fF
C234 a_919_n500# a_1551_n500# 0.11fF
C235 a_1077_n500# a_1235_n500# 0.56fF
C236 a_n1077_n588# a_n1551_n588# 0.02fF
C237 a_187_n588# a_819_n588# 0.02fF
C238 a_n977_n500# a_n1293_n500# 0.24fF
C239 a_n661_n500# a_n1609_n500# 0.07fF
C240 a_n187_n500# a_287_n500# 0.15fF
C241 a_29_n588# a_819_n588# 0.01fF
C242 a_n29_n500# a_1551_n500# 0.04fF
C243 a_n603_n588# a_187_n588# 0.01fF
C244 a_n129_n588# a_819_n588# 0.01fF
C245 a_n503_n500# a_445_n500# 0.07fF
C246 a_129_n500# a_1235_n500# 0.06fF
C247 a_n761_n588# a_187_n588# 0.01fF
C248 a_n603_n588# a_29_n588# 0.02fF
C249 a_n977_n500# a_n29_n500# 0.07fF
C250 a_603_n500# a_1235_n500# 0.11fF
C251 a_n761_n588# a_29_n588# 0.01fF
C252 a_287_n500# a_n1135_n500# 0.05fF
C253 a_n603_n588# a_n129_n588# 0.02fF
C254 a_1451_n588# a_187_n588# 0.01fF
C255 a_1077_n500# a_1551_n500# 0.15fF
C256 a_1235_n500# a_1393_n500# 0.56fF
C257 a_n1393_n588# a_n919_n588# 0.02fF
C258 a_n761_n588# a_n129_n588# 0.02fF
C259 a_1451_n588# a_29_n588# 0.01fF
C260 a_n287_n588# a_187_n588# 0.02fF
C261 a_503_n588# a_661_n588# 0.12fF
C262 a_n345_n500# a_n1609_n500# 0.05fF
C263 a_n819_n500# a_n503_n500# 0.24fF
C264 a_1451_n588# a_n129_n588# 0.01fF
C265 a_n661_n500# a_761_n500# 0.05fF
C266 a_n287_n588# a_29_n588# 0.04fF
C267 a_n445_n588# a_187_n588# 0.02fF
C268 a_345_n588# a_661_n588# 0.04fF
C269 a_n187_n500# a_445_n500# 0.11fF
C270 a_n445_n588# a_29_n588# 0.02fF
C271 a_n287_n588# a_n129_n588# 0.12fF
C272 a_345_n588# a_503_n588# 0.12fF
C273 a_1293_n588# a_819_n588# 0.02fF
C274 a_129_n500# a_1551_n500# 0.05fF
C275 a_187_n588# a_n1235_n588# 0.01fF
C276 a_603_n500# a_1551_n500# 0.07fF
C277 a_n445_n588# a_n129_n588# 0.04fF
C278 a_n1609_n500# a_n1293_n500# 0.24fF
C279 a_n819_n500# a_n1451_n500# 0.11fF
C280 a_29_n588# a_n1235_n588# 0.01fF
C281 a_287_n500# a_1235_n500# 0.07fF
C282 a_1393_n500# a_1551_n500# 0.56fF
C283 a_n977_n500# a_129_n500# 0.06fF
C284 a_n129_n588# a_n1235_n588# 0.01fF
C285 a_977_n588# a_819_n588# 0.12fF
C286 a_1135_n588# a_661_n588# 0.02fF
C287 a_n977_n500# a_603_n500# 0.04fF
C288 a_445_n500# a_n1135_n500# 0.04fF
C289 a_n1077_n588# a_187_n588# 0.01fF
C290 a_n29_n500# a_n1609_n500# 0.04fF
C291 a_n661_n500# a_n345_n500# 0.24fF
C292 a_n819_n500# a_n187_n500# 0.11fF
C293 a_1135_n588# a_503_n588# 0.02fF
C294 a_n345_n500# a_761_n500# 0.06fF
C295 a_1293_n588# a_1451_n588# 0.12fF
C296 a_n1077_n588# a_29_n588# 0.01fF
C297 a_n1551_n588# a_29_n588# 0.01fF
C298 a_n603_n588# a_977_n588# 0.01fF
C299 a_1135_n588# a_345_n588# 0.01fF
C300 a_1551_n500# a_n1743_n722# 0.30fF
C301 a_1393_n500# a_n1743_n722# 0.13fF
C302 a_1235_n500# a_n1743_n722# 0.09fF
C303 a_1077_n500# a_n1743_n722# 0.07fF
C304 a_919_n500# a_n1743_n722# 0.06fF
C305 a_761_n500# a_n1743_n722# 0.05fF
C306 a_603_n500# a_n1743_n722# 0.05fF
C307 a_445_n500# a_n1743_n722# 0.04fF
C308 a_287_n500# a_n1743_n722# 0.04fF
C309 a_129_n500# a_n1743_n722# 0.04fF
C310 a_n29_n500# a_n1743_n722# 0.02fF
C311 a_n187_n500# a_n1743_n722# 0.04fF
C312 a_n345_n500# a_n1743_n722# 0.04fF
C313 a_n503_n500# a_n1743_n722# 0.04fF
C314 a_n661_n500# a_n1743_n722# 0.05fF
C315 a_n819_n500# a_n1743_n722# 0.05fF
C316 a_n977_n500# a_n1743_n722# 0.06fF
C317 a_n1135_n500# a_n1743_n722# 0.07fF
C318 a_n1293_n500# a_n1743_n722# 0.09fF
C319 a_n1451_n500# a_n1743_n722# 0.13fF
C320 a_n1609_n500# a_n1743_n722# 0.30fF
C321 a_1451_n588# a_n1743_n722# 0.28fF
C322 a_1293_n588# a_n1743_n722# 0.23fF
C323 a_1135_n588# a_n1743_n722# 0.24fF
C324 a_977_n588# a_n1743_n722# 0.25fF
C325 a_819_n588# a_n1743_n722# 0.26fF
C326 a_661_n588# a_n1743_n722# 0.26fF
C327 a_503_n588# a_n1743_n722# 0.27fF
C328 a_345_n588# a_n1743_n722# 0.28fF
C329 a_187_n588# a_n1743_n722# 0.28fF
C330 a_29_n588# a_n1743_n722# 0.28fF
C331 a_n129_n588# a_n1743_n722# 0.28fF
C332 a_n287_n588# a_n1743_n722# 0.28fF
C333 a_n445_n588# a_n1743_n722# 0.28fF
C334 a_n603_n588# a_n1743_n722# 0.28fF
C335 a_n761_n588# a_n1743_n722# 0.28fF
C336 a_n919_n588# a_n1743_n722# 0.28fF
C337 a_n1077_n588# a_n1743_n722# 0.28fF
C338 a_n1235_n588# a_n1743_n722# 0.29fF
C339 a_n1393_n588# a_n1743_n722# 0.29fF
C340 a_n1551_n588# a_n1743_n722# 0.34fF
.ends

.subckt sky130_fd_pr__pfet_g5v0d10v5_CADZ46 a_n345_n500# a_n1609_n500# a_n1135_n500#
+ a_29_n597# a_n977_n500# a_n129_n597# a_187_n597# a_n503_n500# a_129_n500# a_n1293_n500#
+ a_n287_n597# a_819_n597# a_n1077_n597# a_287_n500# a_n661_n500# a_345_n597# a_n919_n597#
+ a_n1451_n500# a_977_n597# a_n445_n597# a_919_n500# a_n1235_n597# a_445_n500# a_503_n597#
+ w_n1809_n797# a_n603_n597# a_1077_n500# a_1135_n597# a_661_n597# a_n1393_n597# a_603_n500#
+ a_1293_n597# a_n761_n597# a_1235_n500# a_n1551_n597# a_761_n500# a_n29_n500# a_1451_n597#
+ a_1393_n500# a_n187_n500# a_1551_n500# a_n819_n500# VSUBS
X0 a_n819_n500# a_n919_n597# a_n977_n500# w_n1809_n797# sky130_fd_pr__pfet_g5v0d10v5 ad=1.45e+12p pd=1.058e+07u as=1.45e+12p ps=1.058e+07u w=5e+06u l=500000u
X1 a_n661_n500# a_n761_n597# a_n819_n500# w_n1809_n797# sky130_fd_pr__pfet_g5v0d10v5 ad=1.45e+12p pd=1.058e+07u as=0p ps=0u w=5e+06u l=500000u
X2 a_919_n500# a_819_n597# a_761_n500# w_n1809_n797# sky130_fd_pr__pfet_g5v0d10v5 ad=1.45e+12p pd=1.058e+07u as=1.45e+12p ps=1.058e+07u w=5e+06u l=500000u
X3 a_n187_n500# a_n287_n597# a_n345_n500# w_n1809_n797# sky130_fd_pr__pfet_g5v0d10v5 ad=1.45e+12p pd=1.058e+07u as=1.45e+12p ps=1.058e+07u w=5e+06u l=500000u
X4 a_761_n500# a_661_n597# a_603_n500# w_n1809_n797# sky130_fd_pr__pfet_g5v0d10v5 ad=0p pd=0u as=1.45e+12p ps=1.058e+07u w=5e+06u l=500000u
X5 a_287_n500# a_187_n597# a_129_n500# w_n1809_n797# sky130_fd_pr__pfet_g5v0d10v5 ad=1.45e+12p pd=1.058e+07u as=1.45e+12p ps=1.058e+07u w=5e+06u l=500000u
X6 a_n1293_n500# a_n1393_n597# a_n1451_n500# w_n1809_n797# sky130_fd_pr__pfet_g5v0d10v5 ad=1.45e+12p pd=1.058e+07u as=1.45e+12p ps=1.058e+07u w=5e+06u l=500000u
X7 a_1393_n500# a_1293_n597# a_1235_n500# w_n1809_n797# sky130_fd_pr__pfet_g5v0d10v5 ad=1.45e+12p pd=1.058e+07u as=1.45e+12p ps=1.058e+07u w=5e+06u l=500000u
X8 a_n345_n500# a_n445_n597# a_n503_n500# w_n1809_n797# sky130_fd_pr__pfet_g5v0d10v5 ad=0p pd=0u as=1.45e+12p ps=1.058e+07u w=5e+06u l=500000u
X9 a_129_n500# a_29_n597# a_n29_n500# w_n1809_n797# sky130_fd_pr__pfet_g5v0d10v5 ad=0p pd=0u as=1.45e+12p ps=1.058e+07u w=5e+06u l=500000u
X10 a_445_n500# a_345_n597# a_287_n500# w_n1809_n797# sky130_fd_pr__pfet_g5v0d10v5 ad=1.45e+12p pd=1.058e+07u as=0p ps=0u w=5e+06u l=500000u
X11 a_n1451_n500# a_n1551_n597# a_n1609_n500# w_n1809_n797# sky130_fd_pr__pfet_g5v0d10v5 ad=0p pd=0u as=1.45e+12p ps=1.058e+07u w=5e+06u l=500000u
X12 a_1551_n500# a_1451_n597# a_1393_n500# w_n1809_n797# sky130_fd_pr__pfet_g5v0d10v5 ad=1.45e+12p pd=1.058e+07u as=0p ps=0u w=5e+06u l=500000u
X13 a_n977_n500# a_n1077_n597# a_n1135_n500# w_n1809_n797# sky130_fd_pr__pfet_g5v0d10v5 ad=0p pd=0u as=1.45e+12p ps=1.058e+07u w=5e+06u l=500000u
X14 a_1077_n500# a_977_n597# a_919_n500# w_n1809_n797# sky130_fd_pr__pfet_g5v0d10v5 ad=1.45e+12p pd=1.058e+07u as=0p ps=0u w=5e+06u l=500000u
X15 a_n503_n500# a_n603_n597# a_n661_n500# w_n1809_n797# sky130_fd_pr__pfet_g5v0d10v5 ad=0p pd=0u as=0p ps=0u w=5e+06u l=500000u
X16 a_n29_n500# a_n129_n597# a_n187_n500# w_n1809_n797# sky130_fd_pr__pfet_g5v0d10v5 ad=0p pd=0u as=0p ps=0u w=5e+06u l=500000u
X17 a_603_n500# a_503_n597# a_445_n500# w_n1809_n797# sky130_fd_pr__pfet_g5v0d10v5 ad=0p pd=0u as=0p ps=0u w=5e+06u l=500000u
X18 a_n1135_n500# a_n1235_n597# a_n1293_n500# w_n1809_n797# sky130_fd_pr__pfet_g5v0d10v5 ad=0p pd=0u as=0p ps=0u w=5e+06u l=500000u
X19 a_1235_n500# a_1135_n597# a_1077_n500# w_n1809_n797# sky130_fd_pr__pfet_g5v0d10v5 ad=0p pd=0u as=0p ps=0u w=5e+06u l=500000u
C0 a_n977_n500# a_129_n500# 0.06fF
C1 a_n503_n500# a_n345_n500# 0.56fF
C2 a_n603_n597# a_503_n597# 0.01fF
C3 a_1451_n597# a_345_n597# 0.01fF
C4 a_n503_n500# a_n1293_n500# 0.09fF
C5 a_445_n500# a_919_n500# 0.15fF
C6 a_n187_n500# a_287_n500# 0.15fF
C7 a_445_n500# a_603_n500# 0.56fF
C8 a_n187_n500# a_1235_n500# 0.05fF
C9 a_n29_n500# a_1077_n500# 0.06fF
C10 a_n29_n500# a_761_n500# 0.09fF
C11 w_n1809_n797# a_819_n597# 0.21fF
C12 a_345_n597# a_n445_n597# 0.01fF
C13 a_345_n597# a_977_n597# 0.02fF
C14 a_n445_n597# a_n1077_n597# 0.02fF
C15 a_n187_n500# a_n345_n500# 0.56fF
C16 a_287_n500# a_n1135_n500# 0.05fF
C17 a_n287_n597# a_819_n597# 0.01fF
C18 a_n661_n500# a_287_n500# 0.07fF
C19 a_445_n500# a_n819_n500# 0.05fF
C20 a_n503_n500# w_n1809_n797# 0.04fF
C21 a_187_n597# a_503_n597# 0.04fF
C22 a_n603_n597# a_n445_n597# 0.12fF
C23 a_819_n597# a_1135_n597# 0.04fF
C24 a_n345_n500# a_n1135_n500# 0.09fF
C25 a_n603_n597# a_977_n597# 0.01fF
C26 a_n1551_n597# a_n919_n597# 0.02fF
C27 a_n661_n500# a_n345_n500# 0.24fF
C28 a_n187_n500# a_n1293_n500# 0.06fF
C29 a_n977_n500# a_287_n500# 0.05fF
C30 a_n1293_n500# a_n1135_n500# 0.56fF
C31 w_n1809_n797# a_n761_n597# 0.24fF
C32 a_n29_n500# a_1393_n500# 0.05fF
C33 w_n1809_n797# a_29_n597# 0.24fF
C34 a_n977_n500# a_n345_n500# 0.11fF
C35 a_n1293_n500# a_n661_n500# 0.11fF
C36 a_819_n597# a_1293_n597# 0.02fF
C37 a_1451_n597# a_187_n597# 0.01fF
C38 a_n919_n597# a_503_n597# 0.01fF
C39 a_n187_n500# w_n1809_n797# 0.04fF
C40 a_445_n500# a_1077_n500# 0.11fF
C41 a_603_n500# a_919_n500# 0.24fF
C42 a_445_n500# a_761_n500# 0.24fF
C43 a_n287_n597# a_n761_n597# 0.02fF
C44 a_345_n597# a_n1077_n597# 0.01fF
C45 a_n287_n597# a_29_n597# 0.04fF
C46 a_n503_n500# a_n1609_n500# 0.06fF
C47 a_187_n597# a_n445_n597# 0.02fF
C48 a_187_n597# a_977_n597# 0.01fF
C49 w_n1809_n797# a_n1135_n500# 0.07fF
C50 a_n977_n500# a_n1293_n500# 0.24fF
C51 a_1135_n597# a_29_n597# 0.01fF
C52 a_n603_n597# a_345_n597# 0.01fF
C53 w_n1809_n797# a_n661_n500# 0.05fF
C54 a_n603_n597# a_n1077_n597# 0.02fF
C55 a_603_n500# a_n819_n500# 0.05fF
C56 a_n503_n500# a_n1451_n500# 0.07fF
C57 a_n1235_n597# w_n1809_n797# 0.24fF
C58 a_n187_n500# a_n1609_n500# 0.05fF
C59 a_n977_n500# w_n1809_n797# 0.06fF
C60 a_n503_n500# a_n29_n500# 0.15fF
C61 a_n919_n597# a_n445_n597# 0.02fF
C62 a_29_n597# a_1293_n597# 0.01fF
C63 a_819_n597# a_503_n597# 0.04fF
C64 a_445_n500# a_1393_n500# 0.07fF
C65 a_n287_n597# a_n1235_n597# 0.01fF
C66 a_n1609_n500# a_n1135_n500# 0.15fF
C67 a_345_n597# a_187_n597# 0.12fF
C68 a_n661_n500# a_n1609_n500# 0.07fF
C69 a_919_n500# a_1077_n500# 0.56fF
C70 a_603_n500# a_1077_n500# 0.15fF
C71 a_761_n500# a_919_n500# 0.56fF
C72 a_603_n500# a_761_n500# 0.56fF
C73 a_187_n597# a_n1077_n597# 0.01fF
C74 a_n1551_n597# a_n761_n597# 0.01fF
C75 a_29_n597# a_n1551_n597# 0.01fF
C76 a_n187_n500# a_n1451_n500# 0.05fF
C77 w_n1809_n797# a_n129_n597# 0.24fF
C78 a_n187_n500# a_n29_n500# 0.56fF
C79 a_n603_n597# a_187_n597# 0.01fF
C80 a_819_n597# a_1451_n597# 0.02fF
C81 a_n977_n500# a_n1609_n500# 0.11fF
C82 a_n287_n597# a_n129_n597# 0.12fF
C83 a_n1451_n500# a_n1135_n500# 0.24fF
C84 a_761_n500# a_n819_n500# 0.04fF
C85 a_819_n597# a_n445_n597# 0.01fF
C86 a_n1451_n500# a_n661_n500# 0.09fF
C87 a_345_n597# a_n919_n597# 0.01fF
C88 a_n29_n500# a_n1135_n500# 0.06fF
C89 a_n761_n597# a_503_n597# 0.01fF
C90 a_n1393_n597# w_n1809_n797# 0.25fF
C91 a_29_n597# a_503_n597# 0.02fF
C92 a_1135_n597# a_n129_n597# 0.01fF
C93 a_819_n597# a_977_n597# 0.12fF
C94 a_n29_n500# a_n661_n500# 0.11fF
C95 a_n919_n597# a_n1077_n597# 0.12fF
C96 a_n503_n500# a_445_n500# 0.07fF
C97 a_129_n500# a_287_n500# 0.56fF
C98 a_n1393_n597# a_n287_n597# 0.01fF
C99 a_129_n500# a_1235_n500# 0.06fF
C100 a_n603_n597# a_n919_n597# 0.04fF
C101 a_919_n500# a_1393_n500# 0.15fF
C102 a_n977_n500# a_n1451_n500# 0.15fF
C103 a_603_n500# a_1393_n500# 0.09fF
C104 a_n1235_n597# a_n1551_n597# 0.04fF
C105 a_n345_n500# a_129_n500# 0.15fF
C106 a_n977_n500# a_n29_n500# 0.07fF
C107 w_n1809_n797# a_661_n597# 0.22fF
C108 a_1293_n597# a_n129_n597# 0.01fF
C109 a_29_n597# a_1451_n597# 0.01fF
C110 a_761_n500# a_1077_n500# 0.24fF
C111 a_n287_n597# a_661_n597# 0.01fF
C112 a_n187_n500# a_445_n500# 0.11fF
C113 a_n761_n597# a_n445_n597# 0.04fF
C114 a_n1293_n500# a_129_n500# 0.05fF
C115 a_29_n597# a_n445_n597# 0.02fF
C116 a_819_n597# a_345_n597# 0.02fF
C117 a_29_n597# a_977_n597# 0.01fF
C118 a_1135_n597# a_661_n597# 0.02fF
C119 a_n1551_n597# a_n129_n597# 0.01fF
C120 a_445_n500# a_n1135_n500# 0.04fF
C121 a_187_n597# a_n919_n597# 0.01fF
C122 a_129_n500# a_1551_n500# 0.05fF
C123 a_n661_n500# a_445_n500# 0.06fF
C124 a_n603_n597# a_819_n597# 0.01fF
C125 a_n503_n500# a_919_n500# 0.05fF
C126 a_n503_n500# a_603_n500# 0.06fF
C127 w_n1809_n797# a_129_n500# 0.04fF
C128 a_287_n500# a_1235_n500# 0.07fF
C129 a_n1393_n597# a_n1551_n597# 0.12fF
C130 a_1293_n597# a_661_n597# 0.02fF
C131 a_1077_n500# a_1393_n500# 0.24fF
C132 a_503_n597# a_n129_n597# 0.02fF
C133 a_761_n500# a_1393_n500# 0.11fF
C134 a_n977_n500# a_445_n500# 0.05fF
C135 a_n345_n500# a_287_n500# 0.11fF
C136 a_n345_n500# a_1235_n500# 0.04fF
C137 a_n503_n500# a_n819_n500# 0.24fF
C138 a_345_n597# a_n761_n597# 0.01fF
C139 a_n1235_n597# a_n445_n597# 0.01fF
C140 a_29_n597# a_345_n597# 0.04fF
C141 a_n761_n597# a_n1077_n597# 0.04fF
C142 a_29_n597# a_n1077_n597# 0.01fF
C143 a_n187_n500# a_919_n500# 0.06fF
C144 a_n187_n500# a_603_n500# 0.09fF
C145 a_n1293_n500# a_287_n500# 0.04fF
C146 a_819_n597# a_187_n597# 0.02fF
C147 a_1451_n597# a_n129_n597# 0.01fF
C148 a_n603_n597# a_n761_n597# 0.12fF
C149 a_n603_n597# a_29_n597# 0.02fF
C150 a_n1293_n500# a_n345_n500# 0.07fF
C151 a_287_n500# a_1551_n500# 0.05fF
C152 a_n445_n597# a_n129_n597# 0.04fF
C153 a_n661_n500# a_919_n500# 0.04fF
C154 a_n661_n500# a_603_n500# 0.05fF
C155 a_n187_n500# a_n819_n500# 0.11fF
C156 a_1235_n500# a_1551_n500# 0.24fF
C157 a_n129_n597# a_977_n597# 0.01fF
C158 a_503_n597# a_661_n597# 0.12fF
C159 a_n503_n500# a_1077_n500# 0.04fF
C160 a_n503_n500# a_761_n500# 0.05fF
C161 w_n1809_n797# a_287_n500# 0.04fF
C162 w_n1809_n797# a_1235_n500# 0.09fF
C163 a_n1451_n500# a_129_n500# 0.04fF
C164 a_n1135_n500# a_n819_n500# 0.24fF
C165 a_n1235_n597# a_345_n597# 0.01fF
C166 a_n977_n500# a_603_n500# 0.04fF
C167 w_n1809_n797# a_n345_n500# 0.04fF
C168 a_n1393_n597# a_n445_n597# 0.01fF
C169 a_n29_n500# a_129_n500# 0.56fF
C170 a_n661_n500# a_n819_n500# 0.56fF
C171 a_n1235_n597# a_n1077_n597# 0.12fF
C172 a_187_n597# a_n761_n597# 0.01fF
C173 a_29_n597# a_187_n597# 0.12fF
C174 a_1451_n597# a_661_n597# 0.01fF
C175 a_n1235_n597# a_n603_n597# 0.02fF
C176 a_n187_n500# a_1077_n500# 0.05fF
C177 a_n187_n500# a_761_n500# 0.07fF
C178 w_n1809_n797# a_n1293_n500# 0.09fF
C179 a_n977_n500# a_n819_n500# 0.56fF
C180 a_n445_n597# a_661_n597# 0.01fF
C181 a_345_n597# a_n129_n597# 0.02fF
C182 a_977_n597# a_661_n597# 0.04fF
C183 a_n1077_n597# a_n129_n597# 0.01fF
C184 w_n1809_n797# a_1551_n500# 0.30fF
C185 a_n345_n500# a_n1609_n500# 0.05fF
C186 a_n661_n500# a_761_n500# 0.05fF
C187 a_n919_n597# a_n761_n597# 0.12fF
C188 a_29_n597# a_n919_n597# 0.01fF
C189 a_n603_n597# a_n129_n597# 0.02fF
C190 a_n287_n597# w_n1809_n797# 0.24fF
C191 a_n1393_n597# a_n1077_n597# 0.04fF
C192 a_n1235_n597# a_187_n597# 0.01fF
C193 a_129_n500# a_445_n500# 0.24fF
C194 a_n1293_n500# a_n1609_n500# 0.24fF
C195 a_n29_n500# a_287_n500# 0.24fF
C196 a_n29_n500# a_1235_n500# 0.05fF
C197 a_n187_n500# a_1393_n500# 0.04fF
C198 w_n1809_n797# a_1135_n597# 0.20fF
C199 a_n1393_n597# a_n603_n597# 0.01fF
C200 a_n1451_n500# a_n345_n500# 0.06fF
C201 a_345_n597# a_661_n597# 0.04fF
C202 a_n29_n500# a_n345_n500# 0.24fF
C203 a_n287_n597# a_1135_n597# 0.01fF
C204 w_n1809_n797# a_n1609_n500# 0.30fF
C205 a_187_n597# a_n129_n597# 0.04fF
C206 a_819_n597# a_n761_n597# 0.01fF
C207 a_n1235_n597# a_n919_n597# 0.04fF
C208 a_819_n597# a_29_n597# 0.01fF
C209 a_n1293_n500# a_n1451_n500# 0.56fF
C210 a_n603_n597# a_661_n597# 0.01fF
C211 w_n1809_n797# a_1293_n597# 0.19fF
C212 a_n29_n500# a_n1293_n500# 0.05fF
C213 a_n287_n597# a_1293_n597# 0.01fF
C214 a_n1393_n597# a_187_n597# 0.01fF
C215 a_n29_n500# a_1551_n500# 0.04fF
C216 w_n1809_n797# a_n1451_n500# 0.13fF
C217 a_n503_n500# a_n187_n500# 0.24fF
C218 a_1135_n597# a_1293_n597# 0.12fF
C219 w_n1809_n797# a_n1551_n597# 0.30fF
C220 a_129_n500# a_919_n500# 0.09fF
C221 a_287_n500# a_445_n500# 0.56fF
C222 a_129_n500# a_603_n500# 0.15fF
C223 a_n919_n597# a_n129_n597# 0.01fF
C224 a_n29_n500# w_n1809_n797# 0.02fF
C225 a_445_n500# a_1235_n500# 0.09fF
C226 a_n503_n500# a_n1135_n500# 0.11fF
C227 a_n287_n597# a_n1551_n597# 0.01fF
C228 a_187_n597# a_661_n597# 0.02fF
C229 a_n345_n500# a_445_n500# 0.09fF
C230 a_29_n597# a_n761_n597# 0.01fF
C231 a_n503_n500# a_n661_n500# 0.56fF
C232 a_129_n500# a_n819_n500# 0.07fF
C233 a_n1393_n597# a_n919_n597# 0.02fF
C234 w_n1809_n797# a_503_n597# 0.23fF
C235 a_n1451_n500# a_n1609_n500# 0.56fF
C236 a_n977_n500# a_n503_n500# 0.15fF
C237 a_n287_n597# a_503_n597# 0.01fF
C238 a_n29_n500# a_n1609_n500# 0.04fF
C239 a_n187_n500# a_n1135_n500# 0.07fF
C240 a_n919_n597# a_661_n597# 0.01fF
C241 a_1135_n597# a_503_n597# 0.02fF
C242 a_819_n597# a_n129_n597# 0.01fF
C243 a_445_n500# a_1551_n500# 0.06fF
C244 a_n187_n500# a_n661_n500# 0.15fF
C245 w_n1809_n797# a_1451_n597# 0.24fF
C246 w_n1809_n797# a_445_n500# 0.04fF
C247 a_287_n500# a_919_n500# 0.11fF
C248 a_129_n500# a_1077_n500# 0.07fF
C249 a_287_n500# a_603_n500# 0.24fF
C250 a_129_n500# a_761_n500# 0.11fF
C251 a_n1235_n597# a_n761_n597# 0.02fF
C252 a_n1235_n597# a_29_n597# 0.01fF
C253 a_919_n500# a_1235_n500# 0.24fF
C254 a_603_n500# a_1235_n500# 0.11fF
C255 a_n661_n500# a_n1135_n500# 0.15fF
C256 w_n1809_n797# a_n445_n597# 0.24fF
C257 w_n1809_n797# a_977_n597# 0.20fF
C258 a_n29_n500# a_n1451_n500# 0.05fF
C259 a_n977_n500# a_n187_n500# 0.09fF
C260 a_n345_n500# a_919_n500# 0.05fF
C261 a_1293_n597# a_503_n597# 0.01fF
C262 a_n345_n500# a_603_n500# 0.07fF
C263 a_1135_n597# a_1451_n597# 0.04fF
C264 a_n287_n597# a_n445_n597# 0.12fF
C265 a_287_n500# a_n819_n500# 0.06fF
C266 a_n287_n597# a_977_n597# 0.01fF
C267 a_n977_n500# a_n1135_n500# 0.56fF
C268 a_1135_n597# a_n445_n597# 0.01fF
C269 a_n977_n500# a_n661_n500# 0.24fF
C270 a_n761_n597# a_n129_n597# 0.02fF
C271 a_1135_n597# a_977_n597# 0.12fF
C272 a_819_n597# a_661_n597# 0.12fF
C273 a_29_n597# a_n129_n597# 0.12fF
C274 a_n345_n500# a_n819_n500# 0.15fF