* NGSPICE file created from analog_top.ext - technology: sky130A

.subckt sky130_fd_pr__nfet_g5v0d10v5_BRTJC6 a_n345_n500# a_1135_n588# a_n603_n588#
+ a_n1393_n588# a_n1609_n500# a_661_n588# a_n1135_n500# a_n977_n500# a_1293_n588#
+ a_n761_n588# a_n503_n500# a_n1551_n588# a_129_n500# a_n1293_n500# a_287_n500# a_n661_n500#
+ a_1451_n588# a_n1451_n500# a_919_n500# a_445_n500# a_1077_n500# a_29_n588# a_n129_n588#
+ a_603_n500# a_187_n588# a_1235_n500# a_n287_n588# a_761_n500# a_819_n588# a_345_n588#
+ a_n1077_n588# a_n29_n500# a_1393_n500# a_n919_n588# a_n1743_n722# a_n187_n500# a_977_n588#
+ a_n445_n588# a_503_n588# a_n1235_n588# a_1551_n500# a_n819_n500#
X0 a_n819_n500# a_n919_n588# a_n977_n500# a_n1743_n722# sky130_fd_pr__nfet_g5v0d10v5 ad=1.45e+12p pd=1.058e+07u as=1.45e+12p ps=1.058e+07u w=5e+06u l=500000u
X1 a_n661_n500# a_n761_n588# a_n819_n500# a_n1743_n722# sky130_fd_pr__nfet_g5v0d10v5 ad=1.45e+12p pd=1.058e+07u as=0p ps=0u w=5e+06u l=500000u
X2 a_919_n500# a_819_n588# a_761_n500# a_n1743_n722# sky130_fd_pr__nfet_g5v0d10v5 ad=1.45e+12p pd=1.058e+07u as=1.45e+12p ps=1.058e+07u w=5e+06u l=500000u
X3 a_n187_n500# a_n287_n588# a_n345_n500# a_n1743_n722# sky130_fd_pr__nfet_g5v0d10v5 ad=1.45e+12p pd=1.058e+07u as=1.45e+12p ps=1.058e+07u w=5e+06u l=500000u
X4 a_761_n500# a_661_n588# a_603_n500# a_n1743_n722# sky130_fd_pr__nfet_g5v0d10v5 ad=0p pd=0u as=1.45e+12p ps=1.058e+07u w=5e+06u l=500000u
X5 a_287_n500# a_187_n588# a_129_n500# a_n1743_n722# sky130_fd_pr__nfet_g5v0d10v5 ad=1.45e+12p pd=1.058e+07u as=1.45e+12p ps=1.058e+07u w=5e+06u l=500000u
X6 a_n1293_n500# a_n1393_n588# a_n1451_n500# a_n1743_n722# sky130_fd_pr__nfet_g5v0d10v5 ad=1.45e+12p pd=1.058e+07u as=1.45e+12p ps=1.058e+07u w=5e+06u l=500000u
X7 a_1393_n500# a_1293_n588# a_1235_n500# a_n1743_n722# sky130_fd_pr__nfet_g5v0d10v5 ad=1.45e+12p pd=1.058e+07u as=1.45e+12p ps=1.058e+07u w=5e+06u l=500000u
X8 a_n345_n500# a_n445_n588# a_n503_n500# a_n1743_n722# sky130_fd_pr__nfet_g5v0d10v5 ad=0p pd=0u as=1.45e+12p ps=1.058e+07u w=5e+06u l=500000u
X9 a_129_n500# a_29_n588# a_n29_n500# a_n1743_n722# sky130_fd_pr__nfet_g5v0d10v5 ad=0p pd=0u as=1.45e+12p ps=1.058e+07u w=5e+06u l=500000u
X10 a_445_n500# a_345_n588# a_287_n500# a_n1743_n722# sky130_fd_pr__nfet_g5v0d10v5 ad=1.45e+12p pd=1.058e+07u as=0p ps=0u w=5e+06u l=500000u
X11 a_n1451_n500# a_n1551_n588# a_n1609_n500# a_n1743_n722# sky130_fd_pr__nfet_g5v0d10v5 ad=0p pd=0u as=1.45e+12p ps=1.058e+07u w=5e+06u l=500000u
X12 a_1551_n500# a_1451_n588# a_1393_n500# a_n1743_n722# sky130_fd_pr__nfet_g5v0d10v5 ad=1.45e+12p pd=1.058e+07u as=0p ps=0u w=5e+06u l=500000u
X13 a_n977_n500# a_n1077_n588# a_n1135_n500# a_n1743_n722# sky130_fd_pr__nfet_g5v0d10v5 ad=0p pd=0u as=1.45e+12p ps=1.058e+07u w=5e+06u l=500000u
X14 a_n503_n500# a_n603_n588# a_n661_n500# a_n1743_n722# sky130_fd_pr__nfet_g5v0d10v5 ad=0p pd=0u as=0p ps=0u w=5e+06u l=500000u
X15 a_1077_n500# a_977_n588# a_919_n500# a_n1743_n722# sky130_fd_pr__nfet_g5v0d10v5 ad=1.45e+12p pd=1.058e+07u as=0p ps=0u w=5e+06u l=500000u
X16 a_n29_n500# a_n129_n588# a_n187_n500# a_n1743_n722# sky130_fd_pr__nfet_g5v0d10v5 ad=0p pd=0u as=0p ps=0u w=5e+06u l=500000u
X17 a_603_n500# a_503_n588# a_445_n500# a_n1743_n722# sky130_fd_pr__nfet_g5v0d10v5 ad=0p pd=0u as=0p ps=0u w=5e+06u l=500000u
X18 a_n1135_n500# a_n1235_n588# a_n1293_n500# a_n1743_n722# sky130_fd_pr__nfet_g5v0d10v5 ad=0p pd=0u as=0p ps=0u w=5e+06u l=500000u
X19 a_1235_n500# a_1135_n588# a_1077_n500# a_n1743_n722# sky130_fd_pr__nfet_g5v0d10v5 ad=0p pd=0u as=0p ps=0u w=5e+06u l=500000u
C0 a_n661_n500# a_n1451_n500# 0.09fF
C1 a_345_n588# a_29_n588# 0.04fF
C2 a_n661_n500# a_n1609_n500# 0.07fF
C3 a_445_n500# a_1551_n500# 0.06fF
C4 a_287_n500# a_445_n500# 0.56fF
C5 a_345_n588# a_n1235_n588# 0.01fF
C6 a_129_n500# a_603_n500# 0.15fF
C7 a_n29_n500# a_761_n500# 0.09fF
C8 a_n1293_n500# a_n1135_n500# 0.56fF
C9 a_n29_n500# a_n1293_n500# 0.05fF
C10 a_n187_n500# a_n1135_n500# 0.07fF
C11 a_n187_n500# a_n29_n500# 0.56fF
C12 a_n503_n500# a_129_n500# 0.11fF
C13 a_603_n500# a_1235_n500# 0.11fF
C14 a_n345_n500# a_919_n500# 0.05fF
C15 a_n761_n588# a_187_n588# 0.01fF
C16 a_n445_n588# a_1135_n588# 0.01fF
C17 a_n819_n500# a_287_n500# 0.06fF
C18 a_n761_n588# a_29_n588# 0.01fF
C19 a_n919_n588# a_187_n588# 0.01fF
C20 a_n445_n588# a_187_n588# 0.02fF
C21 a_977_n588# a_661_n588# 0.04fF
C22 a_n919_n588# a_29_n588# 0.01fF
C23 a_n761_n588# a_n1235_n588# 0.02fF
C24 a_n445_n588# a_29_n588# 0.02fF
C25 a_n603_n588# a_187_n588# 0.01fF
C26 a_n345_n500# a_n1451_n500# 0.06fF
C27 a_819_n588# a_661_n588# 0.12fF
C28 a_977_n588# a_503_n588# 0.02fF
C29 a_n919_n588# a_n1235_n588# 0.04fF
C30 a_n445_n588# a_n1235_n588# 0.01fF
C31 a_n603_n588# a_29_n588# 0.02fF
C32 a_n345_n500# a_n1609_n500# 0.05fF
C33 a_977_n588# a_345_n588# 0.02fF
C34 a_819_n588# a_503_n588# 0.04fF
C35 a_n129_n588# a_1293_n588# 0.01fF
C36 a_603_n500# a_1551_n500# 0.07fF
C37 a_n603_n588# a_n1235_n588# 0.02fF
C38 a_n29_n500# a_919_n500# 0.07fF
C39 a_287_n500# a_603_n500# 0.24fF
C40 a_129_n500# a_761_n500# 0.11fF
C41 a_819_n588# a_345_n588# 0.02fF
C42 a_129_n500# a_n1293_n500# 0.05fF
C43 a_n287_n588# a_1293_n588# 0.01fF
C44 a_n187_n500# a_129_n500# 0.24fF
C45 a_n503_n500# a_287_n500# 0.09fF
C46 a_761_n500# a_1235_n500# 0.15fF
C47 a_n345_n500# a_1077_n500# 0.05fF
C48 a_n187_n500# a_1235_n500# 0.05fF
C49 a_1293_n588# a_1451_n588# 0.12fF
C50 a_n819_n500# a_445_n500# 0.05fF
C51 a_n1451_n500# a_n1135_n500# 0.24fF
C52 a_n29_n500# a_n1451_n500# 0.05fF
C53 a_n1135_n500# a_n1609_n500# 0.15fF
C54 a_n29_n500# a_n1609_n500# 0.04fF
C55 a_n761_n588# a_819_n588# 0.01fF
C56 a_n445_n588# a_977_n588# 0.01fF
C57 a_n129_n588# a_1135_n588# 0.01fF
C58 a_n977_n500# a_n661_n500# 0.24fF
C59 a_n445_n588# a_819_n588# 0.01fF
C60 a_n603_n588# a_977_n588# 0.01fF
C61 a_n287_n588# a_1135_n588# 0.01fF
C62 a_761_n500# a_1551_n500# 0.09fF
C63 a_n129_n588# a_187_n588# 0.04fF
C64 a_n29_n500# a_1077_n500# 0.06fF
C65 a_129_n500# a_919_n500# 0.09fF
C66 a_287_n500# a_761_n500# 0.15fF
C67 a_445_n500# a_603_n500# 0.56fF
C68 a_n603_n588# a_819_n588# 0.01fF
C69 a_n29_n500# a_1393_n500# 0.05fF
C70 a_287_n500# a_n1293_n500# 0.04fF
C71 a_n187_n500# a_287_n500# 0.15fF
C72 a_n129_n588# a_29_n588# 0.12fF
C73 a_n287_n588# a_187_n588# 0.02fF
C74 a_n503_n500# a_445_n500# 0.07fF
C75 a_187_n588# a_n1077_n588# 0.01fF
C76 a_919_n500# a_1235_n500# 0.24fF
C77 a_1135_n588# a_1451_n588# 0.04fF
C78 a_n129_n588# a_n1235_n588# 0.01fF
C79 a_n287_n588# a_29_n588# 0.04fF
C80 a_29_n588# a_n1077_n588# 0.01fF
C81 a_n1551_n588# a_29_n588# 0.01fF
C82 a_n819_n500# a_603_n500# 0.05fF
C83 a_n287_n588# a_n1235_n588# 0.01fF
C84 a_129_n500# a_n1451_n500# 0.04fF
C85 a_1451_n588# a_187_n588# 0.01fF
C86 a_n1235_n588# a_n1077_n588# 0.12fF
C87 a_n1551_n588# a_n1235_n588# 0.04fF
C88 a_n819_n500# a_n503_n500# 0.24fF
C89 a_1451_n588# a_29_n588# 0.01fF
C90 a_n977_n500# a_n345_n500# 0.11fF
C91 a_919_n500# a_1551_n500# 0.11fF
C92 a_129_n500# a_1077_n500# 0.07fF
C93 a_445_n500# a_761_n500# 0.24fF
C94 a_287_n500# a_919_n500# 0.11fF
C95 a_129_n500# a_1393_n500# 0.05fF
C96 a_n187_n500# a_445_n500# 0.11fF
C97 a_n129_n588# a_977_n588# 0.01fF
C98 a_n503_n500# a_603_n500# 0.06fF
C99 a_1077_n500# a_1235_n500# 0.56fF
C100 a_1235_n500# a_1393_n500# 0.56fF
C101 a_n129_n588# a_819_n588# 0.01fF
C102 a_n287_n588# a_977_n588# 0.01fF
C103 a_n819_n500# a_761_n500# 0.04fF
C104 a_n819_n500# a_n1293_n500# 0.15fF
C105 a_n977_n500# a_n1135_n500# 0.56fF
C106 a_n287_n588# a_819_n588# 0.01fF
C107 a_n977_n500# a_n29_n500# 0.07fF
C108 a_n819_n500# a_n187_n500# 0.11fF
C109 a_n661_n500# a_n345_n500# 0.24fF
C110 a_977_n588# a_1451_n588# 0.02fF
C111 a_1135_n588# a_1293_n588# 0.12fF
C112 a_819_n588# a_1451_n588# 0.02fF
C113 a_1293_n588# a_187_n588# 0.01fF
C114 a_1077_n500# a_1551_n500# 0.15fF
C115 a_1293_n588# a_29_n588# 0.01fF
C116 a_445_n500# a_919_n500# 0.15fF
C117 a_603_n500# a_761_n500# 0.56fF
C118 a_287_n500# a_1077_n500# 0.09fF
C119 a_1393_n500# a_1551_n500# 0.56fF
C120 a_287_n500# a_1393_n500# 0.06fF
C121 a_n187_n500# a_603_n500# 0.09fF
C122 a_n503_n500# a_761_n500# 0.05fF
C123 a_n503_n500# a_n1293_n500# 0.09fF
C124 a_n661_n500# a_n1135_n500# 0.15fF
C125 a_n661_n500# a_n29_n500# 0.11fF
C126 a_n503_n500# a_n187_n500# 0.24fF
C127 a_n761_n588# a_n1393_n588# 0.02fF
C128 a_n977_n500# a_129_n500# 0.06fF
C129 a_n919_n588# a_n1393_n588# 0.02fF
C130 a_n1393_n588# a_n445_n588# 0.01fF
C131 a_1135_n588# a_187_n588# 0.01fF
C132 a_n1393_n588# a_n603_n588# 0.01fF
C133 a_n819_n500# a_n1451_n500# 0.11fF
C134 a_1135_n588# a_29_n588# 0.01fF
C135 a_503_n588# a_661_n588# 0.12fF
C136 a_445_n500# a_1077_n500# 0.11fF
C137 a_n819_n500# a_n1609_n500# 0.09fF
C138 a_603_n500# a_919_n500# 0.24fF
C139 a_977_n588# a_1293_n588# 0.04fF
C140 a_29_n588# a_187_n588# 0.12fF
C141 a_445_n500# a_1393_n500# 0.07fF
C142 a_n187_n500# a_761_n500# 0.07fF
C143 a_345_n588# a_661_n588# 0.04fF
C144 a_n345_n500# a_n1135_n500# 0.09fF
C145 a_n187_n500# a_n1293_n500# 0.06fF
C146 a_n345_n500# a_n29_n500# 0.24fF
C147 a_n503_n500# a_919_n500# 0.05fF
C148 a_819_n588# a_1293_n588# 0.02fF
C149 a_187_n588# a_n1235_n588# 0.01fF
C150 a_n661_n500# a_129_n500# 0.09fF
C151 a_345_n588# a_503_n588# 0.12fF
C152 a_29_n588# a_n1235_n588# 0.01fF
C153 a_n977_n500# a_287_n500# 0.05fF
C154 a_n503_n500# a_n1451_n500# 0.07fF
C155 a_n761_n588# a_661_n588# 0.01fF
C156 a_n503_n500# a_n1609_n500# 0.06fF
C157 a_n919_n588# a_661_n588# 0.01fF
C158 a_n761_n588# a_503_n588# 0.01fF
C159 a_977_n588# a_1135_n588# 0.12fF
C160 a_n29_n500# a_n1135_n500# 0.06fF
C161 a_n445_n588# a_661_n588# 0.01fF
C162 a_761_n500# a_919_n500# 0.56fF
C163 a_603_n500# a_1077_n500# 0.15fF
C164 a_n761_n588# a_345_n588# 0.01fF
C165 a_n919_n588# a_503_n588# 0.01fF
C166 a_603_n500# a_1393_n500# 0.09fF
C167 a_819_n588# a_1135_n588# 0.04fF
C168 a_n1393_n588# a_n129_n588# 0.01fF
C169 a_n603_n588# a_661_n588# 0.01fF
C170 a_n445_n588# a_503_n588# 0.01fF
C171 a_977_n588# a_187_n588# 0.01fF
C172 a_n187_n500# a_919_n500# 0.06fF
C173 a_n345_n500# a_129_n500# 0.15fF
C174 a_n503_n500# a_1077_n500# 0.04fF
C175 a_n919_n588# a_345_n588# 0.01fF
C176 a_n1393_n588# a_n287_n588# 0.01fF
C177 a_n445_n588# a_345_n588# 0.01fF
C178 a_n603_n588# a_503_n588# 0.01fF
C179 a_819_n588# a_187_n588# 0.02fF
C180 a_977_n588# a_29_n588# 0.01fF
C181 a_n661_n500# a_287_n500# 0.07fF
C182 a_n1393_n588# a_n1077_n588# 0.04fF
C183 a_n1551_n588# a_n1393_n588# 0.12fF
C184 a_n345_n500# a_1235_n500# 0.04fF
C185 a_n603_n588# a_345_n588# 0.01fF
C186 a_819_n588# a_29_n588# 0.01fF
C187 a_n977_n500# a_445_n500# 0.05fF
C188 a_n1451_n500# a_n1293_n500# 0.56fF
C189 a_n187_n500# a_n1451_n500# 0.05fF
C190 a_n1293_n500# a_n1609_n500# 0.24fF
C191 a_n187_n500# a_n1609_n500# 0.05fF
C192 a_n919_n588# a_n761_n588# 0.12fF
C193 a_n761_n588# a_n445_n588# 0.04fF
C194 a_n977_n500# a_n819_n500# 0.56fF
C195 a_129_n500# a_n1135_n500# 0.05fF
C196 a_n29_n500# a_129_n500# 0.56fF
C197 a_n919_n588# a_n445_n588# 0.02fF
C198 a_n761_n588# a_n603_n588# 0.12fF
C199 a_761_n500# a_1077_n500# 0.24fF
C200 a_761_n500# a_1393_n500# 0.11fF
C201 a_n187_n500# a_1077_n500# 0.05fF
C202 a_n187_n500# a_1393_n500# 0.04fF
C203 a_n29_n500# a_1235_n500# 0.05fF
C204 a_n919_n588# a_n603_n588# 0.04fF
C205 a_n345_n500# a_287_n500# 0.11fF
C206 a_n603_n588# a_n445_n588# 0.12fF
C207 a_n661_n500# a_445_n500# 0.06fF
C208 a_n129_n588# a_661_n588# 0.01fF
C209 a_819_n588# a_977_n588# 0.12fF
C210 a_n977_n500# a_603_n500# 0.04fF
C211 a_n287_n588# a_661_n588# 0.01fF
C212 a_n129_n588# a_503_n588# 0.02fF
C213 a_n977_n500# a_n503_n500# 0.15fF
C214 a_n819_n500# a_n661_n500# 0.56fF
C215 a_n129_n588# a_345_n588# 0.02fF
C216 a_n287_n588# a_503_n588# 0.01fF
C217 a_503_n588# a_n1077_n588# 0.01fF
C218 a_n287_n588# a_345_n588# 0.02fF
C219 a_661_n588# a_1451_n588# 0.01fF
C220 a_n29_n500# a_1551_n500# 0.04fF
C221 a_287_n500# a_n1135_n500# 0.05fF
C222 a_345_n588# a_n1077_n588# 0.01fF
C223 a_n29_n500# a_287_n500# 0.24fF
C224 a_919_n500# a_1077_n500# 0.56fF
C225 a_n1451_n500# a_n1609_n500# 0.56fF
C226 a_503_n588# a_1451_n588# 0.01fF
C227 a_919_n500# a_1393_n500# 0.15fF
C228 a_129_n500# a_1235_n500# 0.06fF
C229 a_n345_n500# a_445_n500# 0.09fF
C230 a_345_n588# a_1451_n588# 0.01fF
C231 a_n661_n500# a_603_n500# 0.05fF
C232 a_n761_n588# a_n129_n588# 0.02fF
C233 a_n661_n500# a_n503_n500# 0.56fF
C234 a_n919_n588# a_n129_n588# 0.01fF
C235 a_n761_n588# a_n287_n588# 0.02fF
C236 a_n445_n588# a_n129_n588# 0.04fF
C237 a_n761_n588# a_n1077_n588# 0.04fF
C238 a_n977_n500# a_n1293_n500# 0.24fF
C239 a_n1551_n588# a_n761_n588# 0.01fF
C240 a_n977_n500# a_n187_n500# 0.09fF
C241 a_n819_n500# a_n345_n500# 0.15fF
C242 a_n919_n588# a_n287_n588# 0.02fF
C243 a_n445_n588# a_n287_n588# 0.12fF
C244 a_n603_n588# a_n129_n588# 0.02fF
C245 a_n919_n588# a_n1077_n588# 0.12fF
C246 a_n1551_n588# a_n919_n588# 0.02fF
C247 a_n445_n588# a_n1077_n588# 0.02fF
C248 a_n1551_n588# a_n445_n588# 0.01fF
C249 a_n603_n588# a_n287_n588# 0.04fF
C250 a_129_n500# a_1551_n500# 0.05fF
C251 a_n603_n588# a_n1077_n588# 0.02fF
C252 a_445_n500# a_n1135_n500# 0.04fF
C253 a_n1551_n588# a_n603_n588# 0.01fF
C254 a_129_n500# a_287_n500# 0.56fF
C255 a_n29_n500# a_445_n500# 0.15fF
C256 a_n1393_n588# a_187_n588# 0.01fF
C257 a_1077_n500# a_1393_n500# 0.24fF
C258 a_1235_n500# a_1551_n500# 0.24fF
C259 a_287_n500# a_1235_n500# 0.07fF
C260 a_n1393_n588# a_29_n588# 0.01fF
C261 a_n345_n500# a_603_n500# 0.07fF
C262 a_n661_n500# a_761_n500# 0.05fF
C263 a_661_n588# a_1293_n588# 0.02fF
C264 a_n1393_n588# a_n1235_n588# 0.12fF
C265 a_n819_n500# a_n1135_n500# 0.24fF
C266 a_n661_n500# a_n1293_n500# 0.11fF
C267 a_n661_n500# a_n187_n500# 0.15fF
C268 a_n503_n500# a_n345_n500# 0.56fF
C269 a_n819_n500# a_n29_n500# 0.09fF
C270 a_503_n588# a_1293_n588# 0.01fF
C271 a_345_n588# a_1293_n588# 0.01fF
C272 a_287_n500# a_1551_n500# 0.05fF
C273 a_n977_n500# a_n1451_n500# 0.15fF
C274 a_n29_n500# a_603_n500# 0.11fF
C275 a_129_n500# a_445_n500# 0.24fF
C276 a_n977_n500# a_n1609_n500# 0.11fF
C277 a_n503_n500# a_n1135_n500# 0.11fF
C278 a_n503_n500# a_n29_n500# 0.15fF
C279 a_n287_n588# a_n129_n588# 0.12fF
C280 a_1135_n588# a_661_n588# 0.02fF
C281 a_445_n500# a_1235_n500# 0.09fF
C282 a_n345_n500# a_761_n500# 0.06fF
C283 a_n129_n588# a_n1077_n588# 0.01fF
C284 a_n345_n500# a_n1293_n500# 0.07fF
C285 a_n1551_n588# a_n129_n588# 0.01fF
C286 a_n345_n500# a_n187_n500# 0.56fF
C287 a_n661_n500# a_919_n500# 0.04fF
C288 a_1135_n588# a_503_n588# 0.02fF
C289 a_661_n588# a_187_n588# 0.02fF
C290 a_n819_n500# a_129_n500# 0.07fF
C291 a_n287_n588# a_n1077_n588# 0.01fF
C292 a_n1551_n588# a_n287_n588# 0.01fF
C293 a_1135_n588# a_345_n588# 0.01fF
C294 a_n129_n588# a_1451_n588# 0.01fF
C295 a_661_n588# a_29_n588# 0.02fF
C296 a_503_n588# a_187_n588# 0.04fF
C297 a_n1551_n588# a_n1077_n588# 0.02fF
C298 a_503_n588# a_29_n588# 0.02fF
C299 a_345_n588# a_187_n588# 0.12fF
C300 a_1551_n500# a_n1743_n722# 0.30fF
C301 a_1393_n500# a_n1743_n722# 0.13fF
C302 a_1235_n500# a_n1743_n722# 0.09fF
C303 a_1077_n500# a_n1743_n722# 0.07fF
C304 a_919_n500# a_n1743_n722# 0.06fF
C305 a_761_n500# a_n1743_n722# 0.05fF
C306 a_603_n500# a_n1743_n722# 0.05fF
C307 a_445_n500# a_n1743_n722# 0.04fF
C308 a_287_n500# a_n1743_n722# 0.04fF
C309 a_129_n500# a_n1743_n722# 0.04fF
C310 a_n29_n500# a_n1743_n722# 0.02fF
C311 a_n187_n500# a_n1743_n722# 0.04fF
C312 a_n345_n500# a_n1743_n722# 0.04fF
C313 a_n503_n500# a_n1743_n722# 0.04fF
C314 a_n661_n500# a_n1743_n722# 0.05fF
C315 a_n819_n500# a_n1743_n722# 0.05fF
C316 a_n977_n500# a_n1743_n722# 0.06fF
C317 a_n1135_n500# a_n1743_n722# 0.07fF
C318 a_n1293_n500# a_n1743_n722# 0.09fF
C319 a_n1451_n500# a_n1743_n722# 0.13fF
C320 a_n1609_n500# a_n1743_n722# 0.30fF
C321 a_1451_n588# a_n1743_n722# 0.28fF
C322 a_1293_n588# a_n1743_n722# 0.23fF
C323 a_1135_n588# a_n1743_n722# 0.24fF
C324 a_977_n588# a_n1743_n722# 0.25fF
C325 a_819_n588# a_n1743_n722# 0.26fF
C326 a_661_n588# a_n1743_n722# 0.26fF
C327 a_503_n588# a_n1743_n722# 0.27fF
C328 a_345_n588# a_n1743_n722# 0.28fF
C329 a_187_n588# a_n1743_n722# 0.28fF
C330 a_29_n588# a_n1743_n722# 0.28fF
C331 a_n129_n588# a_n1743_n722# 0.28fF
C332 a_n287_n588# a_n1743_n722# 0.28fF
C333 a_n445_n588# a_n1743_n722# 0.28fF
C334 a_n603_n588# a_n1743_n722# 0.28fF
C335 a_n761_n588# a_n1743_n722# 0.28fF
C336 a_n919_n588# a_n1743_n722# 0.28fF
C337 a_n1077_n588# a_n1743_n722# 0.28fF
C338 a_n1235_n588# a_n1743_n722# 0.29fF
C339 a_n1393_n588# a_n1743_n722# 0.29fF
C340 a_n1551_n588# a_n1743_n722# 0.34fF
.ends

.subckt sky130_fd_pr__pfet_g5v0d10v5_CADZ46 a_n345_n500# a_n1609_n500# a_n1135_n500#
+ a_29_n597# a_n977_n500# a_n129_n597# a_187_n597# a_n503_n500# a_129_n500# a_n1293_n500#
+ a_n287_n597# a_819_n597# a_n1077_n597# a_287_n500# a_n661_n500# a_345_n597# a_n919_n597#
+ a_n1451_n500# a_977_n597# a_n445_n597# a_919_n500# a_n1235_n597# a_445_n500# a_503_n597#
+ w_n1809_n797# a_n603_n597# a_1077_n500# a_1135_n597# a_661_n597# a_n1393_n597# a_603_n500#
+ a_1293_n597# a_n761_n597# a_1235_n500# a_n1551_n597# a_761_n500# a_n29_n500# a_1451_n597#
+ a_1393_n500# a_n187_n500# a_1551_n500# a_n819_n500# VSUBS
X0 a_n819_n500# a_n919_n597# a_n977_n500# w_n1809_n797# sky130_fd_pr__pfet_g5v0d10v5 ad=1.45e+12p pd=1.058e+07u as=1.45e+12p ps=1.058e+07u w=5e+06u l=500000u
X1 a_n661_n500# a_n761_n597# a_n819_n500# w_n1809_n797# sky130_fd_pr__pfet_g5v0d10v5 ad=1.45e+12p pd=1.058e+07u as=0p ps=0u w=5e+06u l=500000u
X2 a_919_n500# a_819_n597# a_761_n500# w_n1809_n797# sky130_fd_pr__pfet_g5v0d10v5 ad=1.45e+12p pd=1.058e+07u as=1.45e+12p ps=1.058e+07u w=5e+06u l=500000u
X3 a_n187_n500# a_n287_n597# a_n345_n500# w_n1809_n797# sky130_fd_pr__pfet_g5v0d10v5 ad=1.45e+12p pd=1.058e+07u as=1.45e+12p ps=1.058e+07u w=5e+06u l=500000u
X4 a_761_n500# a_661_n597# a_603_n500# w_n1809_n797# sky130_fd_pr__pfet_g5v0d10v5 ad=0p pd=0u as=1.45e+12p ps=1.058e+07u w=5e+06u l=500000u
X5 a_287_n500# a_187_n597# a_129_n500# w_n1809_n797# sky130_fd_pr__pfet_g5v0d10v5 ad=1.45e+12p pd=1.058e+07u as=1.45e+12p ps=1.058e+07u w=5e+06u l=500000u
X6 a_n1293_n500# a_n1393_n597# a_n1451_n500# w_n1809_n797# sky130_fd_pr__pfet_g5v0d10v5 ad=1.45e+12p pd=1.058e+07u as=1.45e+12p ps=1.058e+07u w=5e+06u l=500000u
X7 a_1393_n500# a_1293_n597# a_1235_n500# w_n1809_n797# sky130_fd_pr__pfet_g5v0d10v5 ad=1.45e+12p pd=1.058e+07u as=1.45e+12p ps=1.058e+07u w=5e+06u l=500000u
X8 a_n345_n500# a_n445_n597# a_n503_n500# w_n1809_n797# sky130_fd_pr__pfet_g5v0d10v5 ad=0p pd=0u as=1.45e+12p ps=1.058e+07u w=5e+06u l=500000u
X9 a_129_n500# a_29_n597# a_n29_n500# w_n1809_n797# sky130_fd_pr__pfet_g5v0d10v5 ad=0p pd=0u as=1.45e+12p ps=1.058e+07u w=5e+06u l=500000u
X10 a_445_n500# a_345_n597# a_287_n500# w_n1809_n797# sky130_fd_pr__pfet_g5v0d10v5 ad=1.45e+12p pd=1.058e+07u as=0p ps=0u w=5e+06u l=500000u
X11 a_n1451_n500# a_n1551_n597# a_n1609_n500# w_n1809_n797# sky130_fd_pr__pfet_g5v0d10v5 ad=0p pd=0u as=1.45e+12p ps=1.058e+07u w=5e+06u l=500000u
X12 a_1551_n500# a_1451_n597# a_1393_n500# w_n1809_n797# sky130_fd_pr__pfet_g5v0d10v5 ad=1.45e+12p pd=1.058e+07u as=0p ps=0u w=5e+06u l=500000u
X13 a_n977_n500# a_n1077_n597# a_n1135_n500# w_n1809_n797# sky130_fd_pr__pfet_g5v0d10v5 ad=0p pd=0u as=1.45e+12p ps=1.058e+07u w=5e+06u l=500000u
X14 a_1077_n500# a_977_n597# a_919_n500# w_n1809_n797# sky130_fd_pr__pfet_g5v0d10v5 ad=1.45e+12p pd=1.058e+07u as=0p ps=0u w=5e+06u l=500000u
X15 a_n503_n500# a_n603_n597# a_n661_n500# w_n1809_n797# sky130_fd_pr__pfet_g5v0d10v5 ad=0p pd=0u as=0p ps=0u w=5e+06u l=500000u
X16 a_n29_n500# a_n129_n597# a_n187_n500# w_n1809_n797# sky130_fd_pr__pfet_g5v0d10v5 ad=0p pd=0u as=0p ps=0u w=5e+06u l=500000u
X17 a_603_n500# a_503_n597# a_445_n500# w_n1809_n797# sky130_fd_pr__pfet_g5v0d10v5 ad=0p pd=0u as=0p ps=0u w=5e+06u l=500000u
X18 a_n1135_n500# a_n1235_n597# a_n1293_n500# w_n1809_n797# sky130_fd_pr__pfet_g5v0d10v5 ad=0p pd=0u as=0p ps=0u w=5e+06u l=500000u
X19 a_1235_n500# a_1135_n597# a_1077_n500# w_n1809_n797# sky130_fd_pr__pfet_g5v0d10v5 ad=0p pd=0u as=0p ps=0u w=5e+06u l=500000u
C0 a_445_n500# a_n345_n500# 0.09fF
C1 a_n187_n500# a_n503_n500# 0.24fF
C2 a_n661_n500# a_n1609_n500# 0.07fF
C3 a_n819_n500# a_603_n500# 0.05fF
C4 a_129_n500# a_1235_n500# 0.06fF
C5 a_445_n500# a_603_n500# 0.56fF
C6 a_129_n500# a_919_n500# 0.09fF
C7 a_287_n500# a_761_n500# 0.15fF
C8 a_761_n500# a_n345_n500# 0.06fF
C9 a_n187_n500# a_n1609_n500# 0.05fF
C10 a_n29_n500# a_1551_n500# 0.04fF
C11 a_n1393_n597# a_29_n597# 0.01fF
C12 a_1077_n500# a_n503_n500# 0.04fF
C13 a_n1393_n597# a_n287_n597# 0.01fF
C14 a_603_n500# a_761_n500# 0.56fF
C15 a_n919_n597# a_503_n597# 0.01fF
C16 a_n1135_n500# w_n1809_n797# 0.07fF
C17 a_187_n597# a_n1235_n597# 0.01fF
C18 a_503_n597# a_819_n597# 0.04fF
C19 a_n603_n597# a_n129_n597# 0.02fF
C20 a_1235_n500# a_1551_n500# 0.24fF
C21 a_n603_n597# a_345_n597# 0.01fF
C22 a_n1077_n597# a_n1551_n597# 0.02fF
C23 a_919_n500# a_1551_n500# 0.11fF
C24 a_n1077_n597# a_n445_n597# 0.02fF
C25 a_187_n597# a_n919_n597# 0.01fF
C26 a_187_n597# a_819_n597# 0.02fF
C27 a_n1293_n500# w_n1809_n797# 0.09fF
C28 a_1451_n597# a_661_n597# 0.01fF
C29 w_n1809_n797# a_1393_n500# 0.13fF
C30 a_n1135_n500# a_n503_n500# 0.11fF
C31 a_1135_n597# a_n129_n597# 0.01fF
C32 w_n1809_n797# a_n819_n500# 0.05fF
C33 a_1135_n597# a_345_n597# 0.01fF
C34 w_n1809_n797# a_445_n500# 0.04fF
C35 a_n1135_n500# a_n1609_n500# 0.15fF
C36 a_n1293_n500# a_n503_n500# 0.09fF
C37 a_n977_n500# a_287_n500# 0.05fF
C38 a_129_n500# a_n661_n500# 0.09fF
C39 a_n977_n500# a_n345_n500# 0.11fF
C40 a_n345_n500# a_n1451_n500# 0.06fF
C41 w_n1809_n797# a_761_n500# 0.05fF
C42 a_n1293_n500# a_n1609_n500# 0.24fF
C43 a_129_n500# a_n187_n500# 0.24fF
C44 a_n977_n500# a_603_n500# 0.04fF
C45 a_n1551_n597# a_n445_n597# 0.01fF
C46 a_n1393_n597# a_n603_n597# 0.01fF
C47 a_n819_n500# a_n503_n500# 0.24fF
C48 a_1451_n597# w_n1809_n797# 0.24fF
C49 a_977_n597# a_n445_n597# 0.01fF
C50 a_n761_n597# a_n1235_n597# 0.02fF
C51 a_445_n500# a_n503_n500# 0.07fF
C52 a_1293_n597# a_819_n597# 0.02fF
C53 a_503_n597# a_n129_n597# 0.02fF
C54 a_n819_n500# a_n1609_n500# 0.09fF
C55 a_129_n500# a_1077_n500# 0.07fF
C56 a_n919_n597# a_n761_n597# 0.12fF
C57 a_503_n597# a_345_n597# 0.12fF
C58 a_n761_n597# a_819_n597# 0.01fF
C59 a_761_n500# a_n503_n500# 0.05fF
C60 a_187_n597# a_n129_n597# 0.04fF
C61 a_187_n597# a_345_n597# 0.12fF
C62 a_1451_n597# a_29_n597# 0.01fF
C63 a_1077_n500# a_1551_n500# 0.15fF
C64 a_n1135_n500# a_129_n500# 0.05fF
C65 a_n977_n500# w_n1809_n797# 0.06fF
C66 w_n1809_n797# a_n1451_n500# 0.13fF
C67 a_n1077_n597# w_n1809_n797# 0.24fF
C68 a_n919_n597# a_n1235_n597# 0.04fF
C69 a_n1293_n500# a_129_n500# 0.05fF
C70 a_129_n500# a_1393_n500# 0.05fF
C71 a_661_n597# a_n445_n597# 0.01fF
C72 a_977_n597# a_661_n597# 0.04fF
C73 a_1293_n597# a_n129_n597# 0.01fF
C74 a_187_n597# a_n1393_n597# 0.01fF
C75 a_129_n500# a_n819_n500# 0.07fF
C76 a_1293_n597# a_345_n597# 0.01fF
C77 a_n977_n500# a_n503_n500# 0.15fF
C78 a_n761_n597# a_n129_n597# 0.02fF
C79 a_n1077_n597# a_29_n597# 0.01fF
C80 a_n503_n500# a_n1451_n500# 0.07fF
C81 a_129_n500# a_445_n500# 0.24fF
C82 a_n761_n597# a_345_n597# 0.01fF
C83 a_n1077_n597# a_n287_n597# 0.01fF
C84 a_287_n500# a_n345_n500# 0.11fF
C85 a_n977_n500# a_n1609_n500# 0.11fF
C86 a_1393_n500# a_1551_n500# 0.56fF
C87 a_n1609_n500# a_n1451_n500# 0.56fF
C88 a_129_n500# a_761_n500# 0.11fF
C89 a_287_n500# a_603_n500# 0.24fF
C90 a_603_n500# a_n345_n500# 0.07fF
C91 a_445_n500# a_1551_n500# 0.06fF
C92 a_n1551_n597# w_n1809_n797# 0.30fF
C93 w_n1809_n797# a_n445_n597# 0.24fF
C94 w_n1809_n797# a_977_n597# 0.20fF
C95 a_n29_n500# a_1235_n500# 0.05fF
C96 a_1135_n597# a_1451_n597# 0.04fF
C97 a_761_n500# a_1551_n500# 0.09fF
C98 a_n29_n500# a_919_n500# 0.07fF
C99 a_n129_n597# a_n1235_n597# 0.01fF
C100 a_n1551_n597# a_29_n597# 0.01fF
C101 a_n1235_n597# a_345_n597# 0.01fF
C102 a_n1551_n597# a_n287_n597# 0.01fF
C103 a_n445_n597# a_29_n597# 0.02fF
C104 a_977_n597# a_29_n597# 0.01fF
C105 a_n287_n597# a_n445_n597# 0.12fF
C106 a_977_n597# a_n287_n597# 0.01fF
C107 a_919_n500# a_1235_n500# 0.24fF
C108 a_n1393_n597# a_n761_n597# 0.02fF
C109 a_n919_n597# a_n129_n597# 0.01fF
C110 a_819_n597# a_n129_n597# 0.01fF
C111 a_n919_n597# a_345_n597# 0.01fF
C112 a_819_n597# a_345_n597# 0.02fF
C113 a_n1077_n597# a_n603_n597# 0.02fF
C114 w_n1809_n797# a_287_n500# 0.04fF
C115 w_n1809_n797# a_n345_n500# 0.04fF
C116 a_n977_n500# a_129_n500# 0.06fF
C117 a_1451_n597# a_503_n597# 0.01fF
C118 a_129_n500# a_n1451_n500# 0.04fF
C119 w_n1809_n797# a_603_n500# 0.05fF
C120 a_1451_n597# a_187_n597# 0.01fF
C121 a_287_n500# a_n503_n500# 0.09fF
C122 w_n1809_n797# a_661_n597# 0.22fF
C123 a_n503_n500# a_n345_n500# 0.56fF
C124 a_n661_n500# a_n29_n500# 0.11fF
C125 a_n1393_n597# a_n1235_n597# 0.12fF
C126 a_n345_n500# a_n1609_n500# 0.05fF
C127 a_603_n500# a_n503_n500# 0.06fF
C128 a_n187_n500# a_n29_n500# 0.56fF
C129 a_n1393_n597# a_n919_n597# 0.02fF
C130 a_n1551_n597# a_n603_n597# 0.01fF
C131 a_661_n597# a_29_n597# 0.02fF
C132 a_n603_n597# a_n445_n597# 0.12fF
C133 a_661_n597# a_n287_n597# 0.01fF
C134 a_977_n597# a_n603_n597# 0.01fF
C135 a_n661_n500# a_919_n500# 0.04fF
C136 a_n187_n500# a_1235_n500# 0.05fF
C137 a_n29_n500# a_1077_n500# 0.06fF
C138 a_n129_n597# a_345_n597# 0.02fF
C139 a_n187_n500# a_919_n500# 0.06fF
C140 a_n1077_n597# a_503_n597# 0.01fF
C141 a_1077_n500# a_1235_n500# 0.56fF
C142 a_1451_n597# a_1293_n597# 0.12fF
C143 a_1135_n597# a_n445_n597# 0.01fF
C144 a_n1077_n597# a_187_n597# 0.01fF
C145 a_919_n500# a_1077_n500# 0.56fF
C146 a_1135_n597# a_977_n597# 0.12fF
C147 w_n1809_n797# a_29_n597# 0.24fF
C148 a_n1135_n500# a_n29_n500# 0.06fF
C149 w_n1809_n797# a_n287_n597# 0.24fF
C150 w_n1809_n797# a_n503_n500# 0.04fF
C151 w_n1809_n797# a_n1609_n500# 0.30fF
C152 a_129_n500# a_287_n500# 0.56fF
C153 a_n1293_n500# a_n29_n500# 0.05fF
C154 a_129_n500# a_n345_n500# 0.15fF
C155 a_n1393_n597# a_n129_n597# 0.01fF
C156 a_n29_n500# a_1393_n500# 0.05fF
C157 a_n287_n597# a_29_n597# 0.04fF
C158 a_503_n597# a_n445_n597# 0.01fF
C159 a_661_n597# a_n603_n597# 0.01fF
C160 a_977_n597# a_503_n597# 0.02fF
C161 a_129_n500# a_603_n500# 0.15fF
C162 a_n661_n500# a_n187_n500# 0.15fF
C163 a_n819_n500# a_n29_n500# 0.09fF
C164 a_187_n597# a_n445_n597# 0.02fF
C165 a_1235_n500# a_1393_n500# 0.56fF
C166 a_287_n500# a_1551_n500# 0.05fF
C167 a_187_n597# a_977_n597# 0.01fF
C168 a_445_n500# a_n29_n500# 0.15fF
C169 a_n503_n500# a_n1609_n500# 0.06fF
C170 a_919_n500# a_1393_n500# 0.15fF
C171 a_n1077_n597# a_n761_n597# 0.04fF
C172 a_1451_n597# a_819_n597# 0.02fF
C173 a_603_n500# a_1551_n500# 0.07fF
C174 a_445_n500# a_1235_n500# 0.09fF
C175 a_1135_n597# a_661_n597# 0.02fF
C176 a_n29_n500# a_761_n500# 0.09fF
C177 a_n187_n500# a_1077_n500# 0.05fF
C178 a_445_n500# a_919_n500# 0.15fF
C179 w_n1809_n797# a_n603_n597# 0.24fF
C180 a_761_n500# a_1235_n500# 0.15fF
C181 a_761_n500# a_919_n500# 0.56fF
C182 w_n1809_n797# a_129_n500# 0.04fF
C183 a_n1135_n500# a_n661_n500# 0.15fF
C184 a_n603_n597# a_29_n597# 0.02fF
C185 a_661_n597# a_503_n597# 0.12fF
C186 a_n287_n597# a_n603_n597# 0.04fF
C187 a_977_n597# a_1293_n597# 0.04fF
C188 a_n1135_n500# a_n187_n500# 0.07fF
C189 a_n1551_n597# a_n761_n597# 0.01fF
C190 a_1135_n597# w_n1809_n797# 0.20fF
C191 a_n1077_n597# a_n1235_n597# 0.12fF
C192 a_n761_n597# a_n445_n597# 0.04fF
C193 a_n1293_n500# a_n661_n500# 0.11fF
C194 a_187_n597# a_661_n597# 0.02fF
C195 a_n1077_n597# a_n919_n597# 0.12fF
C196 w_n1809_n797# a_1551_n500# 0.30fF
C197 a_n1293_n500# a_n187_n500# 0.06fF
C198 a_129_n500# a_n503_n500# 0.11fF
C199 a_n977_n500# a_n29_n500# 0.07fF
C200 a_n187_n500# a_1393_n500# 0.04fF
C201 a_1451_n597# a_n129_n597# 0.01fF
C202 a_n819_n500# a_n661_n500# 0.56fF
C203 a_1135_n597# a_29_n597# 0.01fF
C204 a_1451_n597# a_345_n597# 0.01fF
C205 a_n29_n500# a_n1451_n500# 0.05fF
C206 a_1135_n597# a_n287_n597# 0.01fF
C207 a_445_n500# a_n661_n500# 0.06fF
C208 a_n819_n500# a_n187_n500# 0.11fF
C209 a_1077_n500# a_1393_n500# 0.24fF
C210 a_445_n500# a_n187_n500# 0.11fF
C211 w_n1809_n797# a_503_n597# 0.23fF
C212 a_n661_n500# a_761_n500# 0.05fF
C213 a_n1551_n597# a_n1235_n597# 0.04fF
C214 a_n187_n500# a_761_n500# 0.07fF
C215 a_187_n597# w_n1809_n797# 0.24fF
C216 a_445_n500# a_1077_n500# 0.11fF
C217 a_n445_n597# a_n1235_n597# 0.01fF
C218 a_n1551_n597# a_n919_n597# 0.02fF
C219 a_n919_n597# a_n445_n597# 0.02fF
C220 a_503_n597# a_29_n597# 0.02fF
C221 a_819_n597# a_n445_n597# 0.01fF
C222 a_n1135_n500# a_n1293_n500# 0.56fF
C223 a_661_n597# a_1293_n597# 0.02fF
C224 a_761_n500# a_1077_n500# 0.24fF
C225 a_n287_n597# a_503_n597# 0.01fF
C226 a_977_n597# a_819_n597# 0.12fF
C227 a_n761_n597# a_661_n597# 0.01fF
C228 a_187_n597# a_29_n597# 0.12fF
C229 a_187_n597# a_n287_n597# 0.02fF
C230 a_n1077_n597# a_n129_n597# 0.01fF
C231 a_n1135_n500# a_n819_n500# 0.24fF
C232 a_n1077_n597# a_345_n597# 0.01fF
C233 a_n1135_n500# a_445_n500# 0.04fF
C234 a_n1293_n500# a_n819_n500# 0.15fF
C235 a_n977_n500# a_n661_n500# 0.24fF
C236 a_n661_n500# a_n1451_n500# 0.09fF
C237 w_n1809_n797# a_1293_n597# 0.19fF
C238 a_445_n500# a_1393_n500# 0.07fF
C239 a_n977_n500# a_n187_n500# 0.09fF
C240 w_n1809_n797# a_n761_n597# 0.24fF
C241 a_n187_n500# a_n1451_n500# 0.05fF
C242 a_129_n500# a_1551_n500# 0.05fF
C243 a_287_n500# a_n29_n500# 0.24fF
C244 a_445_n500# a_n819_n500# 0.05fF
C245 a_n29_n500# a_n345_n500# 0.24fF
C246 a_761_n500# a_1393_n500# 0.11fF
C247 a_n1551_n597# a_n129_n597# 0.01fF
C248 a_n919_n597# a_661_n597# 0.01fF
C249 a_1293_n597# a_29_n597# 0.01fF
C250 a_n129_n597# a_n445_n597# 0.04fF
C251 a_n603_n597# a_503_n597# 0.01fF
C252 a_661_n597# a_819_n597# 0.12fF
C253 a_977_n597# a_n129_n597# 0.01fF
C254 a_n287_n597# a_1293_n597# 0.01fF
C255 a_n445_n597# a_345_n597# 0.01fF
C256 a_n29_n500# a_603_n500# 0.11fF
C257 a_287_n500# a_1235_n500# 0.07fF
C258 a_n819_n500# a_761_n500# 0.04fF
C259 a_n761_n597# a_29_n597# 0.01fF
C260 a_977_n597# a_345_n597# 0.02fF
C261 a_1235_n500# a_n345_n500# 0.04fF
C262 a_n1077_n597# a_n1393_n597# 0.04fF
C263 a_n761_n597# a_n287_n597# 0.02fF
C264 a_445_n500# a_761_n500# 0.24fF
C265 a_287_n500# a_919_n500# 0.11fF
C266 a_919_n500# a_n345_n500# 0.05fF
C267 a_187_n597# a_n603_n597# 0.01fF
C268 a_603_n500# a_1235_n500# 0.11fF
C269 a_603_n500# a_919_n500# 0.24fF
C270 a_1135_n597# a_503_n597# 0.02fF
C271 a_n1135_n500# a_n977_n500# 0.56fF
C272 w_n1809_n797# a_n1235_n597# 0.24fF
C273 a_n1135_n500# a_n1451_n500# 0.24fF
C274 a_n919_n597# w_n1809_n797# 0.24fF