* NGSPICE file created from analog_top.ext - technology: sky130A

.subckt sky130_fd_pr__nfet_g5v0d10v5_BRTJC6 a_n345_n500# a_1135_n588# a_n603_n588#
+ a_n1393_n588# a_n1609_n500# a_661_n588# a_n1135_n500# a_n977_n500# a_1293_n588#
+ a_n761_n588# a_n503_n500# a_n1551_n588# a_129_n500# a_n1293_n500# a_287_n500# a_n661_n500#
+ a_1451_n588# a_n1451_n500# a_919_n500# a_445_n500# a_1077_n500# a_29_n588# a_n129_n588#
+ a_603_n500# a_187_n588# a_1235_n500# a_n287_n588# a_761_n500# a_819_n588# a_345_n588#
+ a_n1077_n588# a_n29_n500# a_1393_n500# a_n919_n588# a_n1743_n722# a_n187_n500# a_977_n588#
+ a_n445_n588# a_503_n588# a_n1235_n588# a_1551_n500# a_n819_n500#
X0 a_n819_n500# a_n919_n588# a_n977_n500# a_n1743_n722# sky130_fd_pr__nfet_g5v0d10v5 ad=1.45e+12p pd=1.058e+07u as=1.45e+12p ps=1.058e+07u w=5e+06u l=500000u
X1 a_n661_n500# a_n761_n588# a_n819_n500# a_n1743_n722# sky130_fd_pr__nfet_g5v0d10v5 ad=1.45e+12p pd=1.058e+07u as=0p ps=0u w=5e+06u l=500000u
X2 a_919_n500# a_819_n588# a_761_n500# a_n1743_n722# sky130_fd_pr__nfet_g5v0d10v5 ad=1.45e+12p pd=1.058e+07u as=1.45e+12p ps=1.058e+07u w=5e+06u l=500000u
X3 a_n187_n500# a_n287_n588# a_n345_n500# a_n1743_n722# sky130_fd_pr__nfet_g5v0d10v5 ad=1.45e+12p pd=1.058e+07u as=1.45e+12p ps=1.058e+07u w=5e+06u l=500000u
X4 a_761_n500# a_661_n588# a_603_n500# a_n1743_n722# sky130_fd_pr__nfet_g5v0d10v5 ad=0p pd=0u as=1.45e+12p ps=1.058e+07u w=5e+06u l=500000u
X5 a_287_n500# a_187_n588# a_129_n500# a_n1743_n722# sky130_fd_pr__nfet_g5v0d10v5 ad=1.45e+12p pd=1.058e+07u as=1.45e+12p ps=1.058e+07u w=5e+06u l=500000u
X6 a_n1293_n500# a_n1393_n588# a_n1451_n500# a_n1743_n722# sky130_fd_pr__nfet_g5v0d10v5 ad=1.45e+12p pd=1.058e+07u as=1.45e+12p ps=1.058e+07u w=5e+06u l=500000u
X7 a_1393_n500# a_1293_n588# a_1235_n500# a_n1743_n722# sky130_fd_pr__nfet_g5v0d10v5 ad=1.45e+12p pd=1.058e+07u as=1.45e+12p ps=1.058e+07u w=5e+06u l=500000u
X8 a_n345_n500# a_n445_n588# a_n503_n500# a_n1743_n722# sky130_fd_pr__nfet_g5v0d10v5 ad=0p pd=0u as=1.45e+12p ps=1.058e+07u w=5e+06u l=500000u
X9 a_129_n500# a_29_n588# a_n29_n500# a_n1743_n722# sky130_fd_pr__nfet_g5v0d10v5 ad=0p pd=0u as=1.45e+12p ps=1.058e+07u w=5e+06u l=500000u
X10 a_445_n500# a_345_n588# a_287_n500# a_n1743_n722# sky130_fd_pr__nfet_g5v0d10v5 ad=1.45e+12p pd=1.058e+07u as=0p ps=0u w=5e+06u l=500000u
X11 a_n1451_n500# a_n1551_n588# a_n1609_n500# a_n1743_n722# sky130_fd_pr__nfet_g5v0d10v5 ad=0p pd=0u as=1.45e+12p ps=1.058e+07u w=5e+06u l=500000u
X12 a_1551_n500# a_1451_n588# a_1393_n500# a_n1743_n722# sky130_fd_pr__nfet_g5v0d10v5 ad=1.45e+12p pd=1.058e+07u as=0p ps=0u w=5e+06u l=500000u
X13 a_n977_n500# a_n1077_n588# a_n1135_n500# a_n1743_n722# sky130_fd_pr__nfet_g5v0d10v5 ad=0p pd=0u as=1.45e+12p ps=1.058e+07u w=5e+06u l=500000u
X14 a_n503_n500# a_n603_n588# a_n661_n500# a_n1743_n722# sky130_fd_pr__nfet_g5v0d10v5 ad=0p pd=0u as=0p ps=0u w=5e+06u l=500000u
X15 a_1077_n500# a_977_n588# a_919_n500# a_n1743_n722# sky130_fd_pr__nfet_g5v0d10v5 ad=1.45e+12p pd=1.058e+07u as=0p ps=0u w=5e+06u l=500000u
X16 a_n29_n500# a_n129_n588# a_n187_n500# a_n1743_n722# sky130_fd_pr__nfet_g5v0d10v5 ad=0p pd=0u as=0p ps=0u w=5e+06u l=500000u
X17 a_603_n500# a_503_n588# a_445_n500# a_n1743_n722# sky130_fd_pr__nfet_g5v0d10v5 ad=0p pd=0u as=0p ps=0u w=5e+06u l=500000u
X18 a_n1135_n500# a_n1235_n588# a_n1293_n500# a_n1743_n722# sky130_fd_pr__nfet_g5v0d10v5 ad=0p pd=0u as=0p ps=0u w=5e+06u l=500000u
X19 a_1235_n500# a_1135_n588# a_1077_n500# a_n1743_n722# sky130_fd_pr__nfet_g5v0d10v5 ad=0p pd=0u as=0p ps=0u w=5e+06u l=500000u
C0 a_n761_n588# a_503_n588# 0.01fF
C1 a_819_n588# a_977_n588# 0.12fF
C2 a_n445_n588# a_n1077_n588# 0.02fF
C3 a_n761_n588# a_n129_n588# 0.02fF
C4 a_661_n588# a_977_n588# 0.04fF
C5 a_n29_n500# a_1393_n500# 0.05fF
C6 a_n603_n588# a_n1077_n588# 0.02fF
C7 a_n761_n588# a_n287_n588# 0.02fF
C8 a_1235_n500# a_1551_n500# 0.24fF
C9 a_503_n588# a_977_n588# 0.02fF
C10 a_661_n588# a_819_n588# 0.12fF
C11 a_n345_n500# a_129_n500# 0.15fF
C12 a_503_n588# a_819_n588# 0.04fF
C13 a_445_n500# a_761_n500# 0.24fF
C14 a_287_n500# a_919_n500# 0.11fF
C15 a_129_n500# a_1077_n500# 0.07fF
C16 a_287_n500# a_n1135_n500# 0.05fF
C17 a_n1393_n588# a_n1077_n588# 0.04fF
C18 a_n129_n588# a_977_n588# 0.01fF
C19 a_503_n588# a_661_n588# 0.12fF
C20 a_n661_n500# a_287_n500# 0.07fF
C21 a_345_n588# a_n1077_n588# 0.01fF
C22 a_n129_n588# a_819_n588# 0.01fF
C23 a_n287_n588# a_977_n588# 0.01fF
C24 a_187_n588# a_n1077_n588# 0.01fF
C25 a_n1135_n500# a_n1609_n500# 0.15fF
C26 a_n287_n588# a_819_n588# 0.01fF
C27 a_n129_n588# a_661_n588# 0.01fF
C28 a_29_n588# a_n1077_n588# 0.01fF
C29 a_n819_n500# a_761_n500# 0.04fF
C30 a_n661_n500# a_n1609_n500# 0.07fF
C31 a_n287_n588# a_661_n588# 0.01fF
C32 a_n129_n588# a_503_n588# 0.02fF
C33 a_n29_n500# a_129_n500# 0.56fF
C34 a_n761_n588# a_n919_n588# 0.12fF
C35 a_n287_n588# a_503_n588# 0.01fF
C36 a_129_n500# a_1393_n500# 0.05fF
C37 a_n345_n500# a_287_n500# 0.11fF
C38 a_n1235_n588# a_n1077_n588# 0.12fF
C39 a_287_n500# a_1077_n500# 0.09fF
C40 a_445_n500# a_919_n500# 0.15fF
C41 a_603_n500# a_761_n500# 0.56fF
C42 a_445_n500# a_n1135_n500# 0.04fF
C43 a_n287_n588# a_n129_n588# 0.12fF
C44 a_n661_n500# a_445_n500# 0.06fF
C45 a_n603_n588# a_n445_n588# 0.12fF
C46 a_n503_n500# a_761_n500# 0.05fF
C47 a_n345_n500# a_n1609_n500# 0.05fF
C48 a_n1293_n500# a_n1135_n500# 0.56fF
C49 a_661_n588# a_n919_n588# 0.01fF
C50 a_n1393_n588# a_n445_n588# 0.01fF
C51 a_n819_n500# a_n1135_n500# 0.24fF
C52 a_n661_n500# a_n1293_n500# 0.11fF
C53 a_503_n588# a_n919_n588# 0.01fF
C54 a_n1393_n588# a_n603_n588# 0.01fF
C55 a_n445_n588# a_345_n588# 0.01fF
C56 a_n29_n500# a_287_n500# 0.24fF
C57 a_n819_n500# a_n661_n500# 0.56fF
C58 a_287_n500# a_1393_n500# 0.06fF
C59 a_n603_n588# a_345_n588# 0.01fF
C60 a_n445_n588# a_187_n588# 0.02fF
C61 a_n1551_n588# a_n1077_n588# 0.02fF
C62 a_n129_n588# a_n919_n588# 0.01fF
C63 a_n345_n500# a_445_n500# 0.09fF
C64 a_603_n500# a_919_n500# 0.24fF
C65 a_445_n500# a_1077_n500# 0.11fF
C66 a_n445_n588# a_29_n588# 0.02fF
C67 a_n603_n588# a_187_n588# 0.01fF
C68 a_n187_n500# a_761_n500# 0.07fF
C69 a_n29_n500# a_n1609_n500# 0.04fF
C70 a_n287_n588# a_n919_n588# 0.02fF
C71 a_761_n500# a_1235_n500# 0.15fF
C72 a_n1135_n500# a_n977_n500# 0.56fF
C73 a_n603_n588# a_29_n588# 0.02fF
C74 a_n661_n500# a_603_n500# 0.05fF
C75 a_n1393_n588# a_187_n588# 0.01fF
C76 a_n503_n500# a_919_n500# 0.05fF
C77 a_n345_n500# a_n1293_n500# 0.07fF
C78 a_n661_n500# a_n977_n500# 0.24fF
C79 a_n503_n500# a_n1135_n500# 0.11fF
C80 a_n1393_n588# a_29_n588# 0.01fF
C81 a_187_n588# a_345_n588# 0.12fF
C82 a_n661_n500# a_n503_n500# 0.56fF
C83 a_n819_n500# a_n345_n500# 0.15fF
C84 a_n445_n588# a_n1235_n588# 0.01fF
C85 a_29_n588# a_345_n588# 0.04fF
C86 a_n603_n588# a_n1235_n588# 0.02fF
C87 a_n29_n500# a_445_n500# 0.15fF
C88 a_129_n500# a_287_n500# 0.56fF
C89 a_29_n588# a_187_n588# 0.12fF
C90 a_445_n500# a_1393_n500# 0.07fF
C91 a_n1451_n500# a_n1135_n500# 0.24fF
C92 a_761_n500# a_1551_n500# 0.09fF
C93 a_n1393_n588# a_n1235_n588# 0.12fF
C94 a_n661_n500# a_n1451_n500# 0.09fF
C95 a_n345_n500# a_603_n500# 0.07fF
C96 a_603_n500# a_1077_n500# 0.15fF
C97 a_n187_n500# a_919_n500# 0.06fF
C98 a_n1235_n588# a_345_n588# 0.01fF
C99 a_n29_n500# a_n1293_n500# 0.05fF
C100 a_n187_n500# a_n1135_n500# 0.07fF
C101 a_n345_n500# a_n977_n500# 0.11fF
C102 a_919_n500# a_1235_n500# 0.24fF
C103 a_n1235_n588# a_187_n588# 0.01fF
C104 a_n445_n588# a_1135_n588# 0.01fF
C105 a_n661_n500# a_n187_n500# 0.15fF
C106 a_n503_n500# a_n345_n500# 0.56fF
C107 a_n819_n500# a_n29_n500# 0.09fF
C108 a_n503_n500# a_1077_n500# 0.04fF
C109 a_n1235_n588# a_29_n588# 0.01fF
C110 a_n1551_n588# a_n445_n588# 0.01fF
C111 a_1451_n588# a_345_n588# 0.01fF
C112 a_n1551_n588# a_n603_n588# 0.01fF
C113 a_1293_n588# a_345_n588# 0.01fF
C114 a_1451_n588# a_187_n588# 0.01fF
C115 a_n345_n500# a_n1451_n500# 0.06fF
C116 a_129_n500# a_445_n500# 0.24fF
C117 a_n29_n500# a_603_n500# 0.11fF
C118 a_n761_n588# a_n1077_n588# 0.04fF
C119 a_603_n500# a_1393_n500# 0.09fF
C120 a_n1551_n588# a_n1393_n588# 0.12fF
C121 a_1293_n588# a_187_n588# 0.01fF
C122 a_1451_n588# a_29_n588# 0.01fF
C123 a_1135_n588# a_345_n588# 0.01fF
C124 a_n29_n500# a_n977_n500# 0.07fF
C125 a_919_n500# a_1551_n500# 0.11fF
C126 a_1135_n588# a_187_n588# 0.01fF
C127 a_1293_n588# a_29_n588# 0.01fF
C128 a_n345_n500# a_n187_n500# 0.56fF
C129 a_n503_n500# a_n29_n500# 0.15fF
C130 a_n187_n500# a_1077_n500# 0.05fF
C131 a_n345_n500# a_1235_n500# 0.04fF
C132 a_129_n500# a_n1293_n500# 0.05fF
C133 a_1077_n500# a_1235_n500# 0.56fF
C134 a_1135_n588# a_29_n588# 0.01fF
C135 a_n819_n500# a_129_n500# 0.07fF
C136 a_n1551_n588# a_29_n588# 0.01fF
C137 a_n29_n500# a_n1451_n500# 0.05fF
C138 a_503_n588# a_n1077_n588# 0.01fF
C139 a_287_n500# a_445_n500# 0.56fF
C140 a_129_n500# a_603_n500# 0.15fF
C141 a_n1551_n588# a_n1235_n588# 0.04fF
C142 a_n187_n500# a_n29_n500# 0.56fF
C143 a_n187_n500# a_1393_n500# 0.04fF
C144 a_n29_n500# a_1235_n500# 0.05fF
C145 a_129_n500# a_n977_n500# 0.06fF
C146 a_1235_n500# a_1393_n500# 0.56fF
C147 a_1077_n500# a_1551_n500# 0.15fF
C148 a_1293_n588# a_1451_n588# 0.12fF
C149 a_n129_n588# a_n1077_n588# 0.01fF
C150 a_n503_n500# a_129_n500# 0.11fF
C151 a_1135_n588# a_1451_n588# 0.04fF
C152 a_287_n500# a_n1293_n500# 0.04fF
C153 a_n287_n588# a_n1077_n588# 0.01fF
C154 a_n445_n588# a_n761_n588# 0.04fF
C155 a_1135_n588# a_1293_n588# 0.12fF
C156 a_n819_n500# a_287_n500# 0.06fF
C157 a_n603_n588# a_n761_n588# 0.12fF
C158 a_n1293_n500# a_n1609_n500# 0.24fF
C159 a_129_n500# a_n1451_n500# 0.04fF
C160 a_n29_n500# a_1551_n500# 0.04fF
C161 a_n819_n500# a_n1609_n500# 0.09fF
C162 a_1393_n500# a_1551_n500# 0.56fF
C163 a_n1393_n588# a_n761_n588# 0.02fF
C164 a_n445_n588# a_977_n588# 0.01fF
C165 a_287_n500# a_603_n500# 0.24fF
C166 a_n187_n500# a_129_n500# 0.24fF
C167 a_n761_n588# a_345_n588# 0.01fF
C168 a_129_n500# a_1235_n500# 0.06fF
C169 a_n603_n588# a_977_n588# 0.01fF
C170 a_n445_n588# a_819_n588# 0.01fF
C171 a_287_n500# a_n977_n500# 0.05fF
C172 a_n761_n588# a_187_n588# 0.01fF
C173 a_n445_n588# a_661_n588# 0.01fF
C174 a_n603_n588# a_819_n588# 0.01fF
C175 a_n1077_n588# a_n919_n588# 0.12fF
C176 a_n503_n500# a_287_n500# 0.09fF
C177 a_n761_n588# a_29_n588# 0.01fF
C178 a_n445_n588# a_503_n588# 0.01fF
C179 a_n603_n588# a_661_n588# 0.01fF
C180 a_761_n500# a_919_n500# 0.56fF
C181 a_n977_n500# a_n1609_n500# 0.11fF
C182 a_n819_n500# a_445_n500# 0.05fF
C183 a_345_n588# a_977_n588# 0.02fF
C184 a_n603_n588# a_503_n588# 0.01fF
C185 a_n661_n500# a_761_n500# 0.05fF
C186 a_n503_n500# a_n1609_n500# 0.06fF
C187 a_345_n588# a_819_n588# 0.02fF
C188 a_187_n588# a_977_n588# 0.01fF
C189 a_n445_n588# a_n129_n588# 0.04fF
C190 a_345_n588# a_661_n588# 0.04fF
C191 a_29_n588# a_977_n588# 0.01fF
C192 a_187_n588# a_819_n588# 0.02fF
C193 a_129_n500# a_1551_n500# 0.05fF
C194 a_n445_n588# a_n287_n588# 0.12fF
C195 a_n1235_n588# a_n761_n588# 0.02fF
C196 a_n603_n588# a_n129_n588# 0.02fF
C197 a_n819_n500# a_n1293_n500# 0.15fF
C198 a_445_n500# a_603_n500# 0.56fF
C199 a_29_n588# a_819_n588# 0.01fF
C200 a_187_n588# a_661_n588# 0.02fF
C201 a_345_n588# a_503_n588# 0.12fF
C202 a_n603_n588# a_n287_n588# 0.04fF
C203 a_n187_n500# a_287_n500# 0.15fF
C204 a_287_n500# a_1235_n500# 0.07fF
C205 a_n1451_n500# a_n1609_n500# 0.56fF
C206 a_445_n500# a_n977_n500# 0.05fF
C207 a_n1393_n588# a_n129_n588# 0.01fF
C208 a_187_n588# a_503_n588# 0.04fF
C209 a_29_n588# a_661_n588# 0.02fF
C210 a_n503_n500# a_445_n500# 0.07fF
C211 a_n129_n588# a_345_n588# 0.02fF
C212 a_n1393_n588# a_n287_n588# 0.01fF
C213 a_29_n588# a_503_n588# 0.02fF
C214 a_n345_n500# a_761_n500# 0.06fF
C215 a_n187_n500# a_n1609_n500# 0.05fF
C216 a_761_n500# a_1077_n500# 0.24fF
C217 a_n287_n588# a_345_n588# 0.02fF
C218 a_n129_n588# a_187_n588# 0.04fF
C219 a_n1293_n500# a_n977_n500# 0.24fF
C220 a_n819_n500# a_603_n500# 0.05fF
C221 a_n129_n588# a_29_n588# 0.12fF
C222 a_n287_n588# a_187_n588# 0.02fF
C223 a_n661_n500# a_919_n500# 0.04fF
C224 a_n819_n500# a_n977_n500# 0.56fF
C225 a_n661_n500# a_n1135_n500# 0.15fF
C226 a_n503_n500# a_n1293_n500# 0.09fF
C227 a_n1551_n588# a_n761_n588# 0.01fF
C228 a_n287_n588# a_29_n588# 0.04fF
C229 a_1451_n588# a_977_n588# 0.02fF
C230 a_n445_n588# a_n919_n588# 0.02fF
C231 a_n819_n500# a_n503_n500# 0.24fF
C232 a_287_n500# a_1551_n500# 0.05fF
C233 a_1451_n588# a_819_n588# 0.02fF
C234 a_1293_n588# a_977_n588# 0.04fF
C235 a_n603_n588# a_n919_n588# 0.04fF
C236 a_n187_n500# a_445_n500# 0.11fF
C237 a_1135_n588# a_977_n588# 0.12fF
C238 a_1293_n588# a_819_n588# 0.02fF
C239 a_1451_n588# a_661_n588# 0.01fF
C240 a_445_n500# a_1235_n500# 0.09fF
C241 a_n1235_n588# a_n129_n588# 0.01fF
C242 a_n1451_n500# a_n1293_n500# 0.56fF
C243 a_603_n500# a_n977_n500# 0.04fF
C244 a_n29_n500# a_761_n500# 0.09fF
C245 a_761_n500# a_1393_n500# 0.11fF
C246 a_n1393_n588# a_n919_n588# 0.02fF
C247 a_1135_n588# a_819_n588# 0.04fF
C248 a_1451_n588# a_503_n588# 0.01fF
C249 a_1293_n588# a_661_n588# 0.02fF
C250 a_n1235_n588# a_n287_n588# 0.01fF
C251 a_n819_n500# a_n1451_n500# 0.11fF
C252 a_n503_n500# a_603_n500# 0.06fF
C253 a_345_n588# a_n919_n588# 0.01fF
C254 a_1135_n588# a_661_n588# 0.02fF
C255 a_1293_n588# a_503_n588# 0.01fF
C256 a_n345_n500# a_919_n500# 0.05fF
C257 a_n503_n500# a_n977_n500# 0.15fF
C258 a_n187_n500# a_n1293_n500# 0.06fF
C259 a_n345_n500# a_n1135_n500# 0.09fF
C260 a_919_n500# a_1077_n500# 0.56fF
C261 a_187_n588# a_n919_n588# 0.01fF
C262 a_n129_n588# a_1451_n588# 0.01fF
C263 a_1135_n588# a_503_n588# 0.02fF
C264 a_n819_n500# a_n187_n500# 0.11fF
C265 a_n661_n500# a_n345_n500# 0.24fF
C266 a_29_n588# a_n919_n588# 0.01fF
C267 a_n129_n588# a_1293_n588# 0.01fF
C268 a_n287_n588# a_1293_n588# 0.01fF
C269 a_n129_n588# a_1135_n588# 0.01fF
C270 a_445_n500# a_1551_n500# 0.06fF
C271 a_n1451_n500# a_n977_n500# 0.15fF
C272 a_n1551_n588# a_n129_n588# 0.01fF
C273 a_n287_n588# a_1135_n588# 0.01fF
C274 a_n503_n500# a_n1451_n500# 0.07fF
C275 a_n187_n500# a_603_n500# 0.09fF
C276 a_603_n500# a_1235_n500# 0.11fF
C277 a_n1551_n588# a_n287_n588# 0.01fF
C278 a_n1235_n588# a_n919_n588# 0.04fF
C279 a_129_n500# a_761_n500# 0.11fF
C280 a_n29_n500# a_919_n500# 0.07fF
C281 a_n187_n500# a_n977_n500# 0.09fF
C282 a_n29_n500# a_n1135_n500# 0.06fF
C283 a_919_n500# a_1393_n500# 0.15fF
C284 a_n661_n500# a_n29_n500# 0.11fF
C285 a_n503_n500# a_n187_n500# 0.24fF
C286 a_n345_n500# a_1077_n500# 0.05fF
C287 a_n187_n500# a_n1451_n500# 0.05fF
C288 a_603_n500# a_1551_n500# 0.07fF
C289 a_n1551_n588# a_n919_n588# 0.02fF
C290 a_n345_n500# a_n29_n500# 0.24fF
C291 a_n29_n500# a_1077_n500# 0.06fF
C292 a_n187_n500# a_1235_n500# 0.05fF
C293 a_287_n500# a_761_n500# 0.15fF
C294 a_129_n500# a_919_n500# 0.09fF
C295 a_129_n500# a_n1135_n500# 0.05fF
C296 a_n761_n588# a_819_n588# 0.01fF
C297 a_1077_n500# a_1393_n500# 0.24fF
C298 a_n661_n500# a_129_n500# 0.09fF
C299 a_n761_n588# a_661_n588# 0.01fF
C300 a_1551_n500# a_n1743_n722# 0.30fF
C301 a_1393_n500# a_n1743_n722# 0.13fF
C302 a_1235_n500# a_n1743_n722# 0.09fF
C303 a_1077_n500# a_n1743_n722# 0.07fF
C304 a_919_n500# a_n1743_n722# 0.06fF
C305 a_761_n500# a_n1743_n722# 0.05fF
C306 a_603_n500# a_n1743_n722# 0.05fF
C307 a_445_n500# a_n1743_n722# 0.04fF
C308 a_287_n500# a_n1743_n722# 0.04fF
C309 a_129_n500# a_n1743_n722# 0.04fF
C310 a_n29_n500# a_n1743_n722# 0.02fF
C311 a_n187_n500# a_n1743_n722# 0.04fF
C312 a_n345_n500# a_n1743_n722# 0.04fF
C313 a_n503_n500# a_n1743_n722# 0.04fF
C314 a_n661_n500# a_n1743_n722# 0.05fF
C315 a_n819_n500# a_n1743_n722# 0.05fF
C316 a_n977_n500# a_n1743_n722# 0.06fF
C317 a_n1135_n500# a_n1743_n722# 0.07fF
C318 a_n1293_n500# a_n1743_n722# 0.09fF
C319 a_n1451_n500# a_n1743_n722# 0.13fF
C320 a_n1609_n500# a_n1743_n722# 0.30fF
C321 a_1451_n588# a_n1743_n722# 0.28fF
C322 a_1293_n588# a_n1743_n722# 0.23fF
C323 a_1135_n588# a_n1743_n722# 0.24fF
C324 a_977_n588# a_n1743_n722# 0.25fF
C325 a_819_n588# a_n1743_n722# 0.26fF
C326 a_661_n588# a_n1743_n722# 0.26fF
C327 a_503_n588# a_n1743_n722# 0.27fF
C328 a_345_n588# a_n1743_n722# 0.28fF
C329 a_187_n588# a_n1743_n722# 0.28fF
C330 a_29_n588# a_n1743_n722# 0.28fF
C331 a_n129_n588# a_n1743_n722# 0.28fF
C332 a_n287_n588# a_n1743_n722# 0.28fF
C333 a_n445_n588# a_n1743_n722# 0.28fF
C334 a_n603_n588# a_n1743_n722# 0.28fF
C335 a_n761_n588# a_n1743_n722# 0.28fF
C336 a_n919_n588# a_n1743_n722# 0.28fF
C337 a_n1077_n588# a_n1743_n722# 0.28fF
C338 a_n1235_n588# a_n1743_n722# 0.29fF
C339 a_n1393_n588# a_n1743_n722# 0.29fF
C340 a_n1551_n588# a_n1743_n722# 0.34fF
.ends

.subckt sky130_fd_pr__pfet_g5v0d10v5_CADZ46 a_n345_n500# a_n1609_n500# a_n1135_n500#
+ a_29_n597# a_n977_n500# a_n129_n597# a_187_n597# a_n503_n500# a_129_n500# a_n1293_n500#
+ a_n287_n597# a_819_n597# a_n1077_n597# a_287_n500# a_n661_n500# a_345_n597# a_n919_n597#
+ a_n1451_n500# a_977_n597# a_n445_n597# a_919_n500# a_n1235_n597# a_445_n500# a_503_n597#
+ w_n1809_n797# a_n603_n597# a_1077_n500# a_1135_n597# a_661_n597# a_n1393_n597# a_603_n500#
+ a_1293_n597# a_n761_n597# a_1235_n500# a_n1551_n597# a_761_n500# a_n29_n500# a_1451_n597#
+ a_1393_n500# a_n187_n500# a_1551_n500# a_n819_n500# VSUBS
X0 a_n819_n500# a_n919_n597# a_n977_n500# w_n1809_n797# sky130_fd_pr__pfet_g5v0d10v5 ad=1.45e+12p pd=1.058e+07u as=1.45e+12p ps=1.058e+07u w=5e+06u l=500000u
X1 a_n661_n500# a_n761_n597# a_n819_n500# w_n1809_n797# sky130_fd_pr__pfet_g5v0d10v5 ad=1.45e+12p pd=1.058e+07u as=0p ps=0u w=5e+06u l=500000u
X2 a_919_n500# a_819_n597# a_761_n500# w_n1809_n797# sky130_fd_pr__pfet_g5v0d10v5 ad=1.45e+12p pd=1.058e+07u as=1.45e+12p ps=1.058e+07u w=5e+06u l=500000u
X3 a_n187_n500# a_n287_n597# a_n345_n500# w_n1809_n797# sky130_fd_pr__pfet_g5v0d10v5 ad=1.45e+12p pd=1.058e+07u as=1.45e+12p ps=1.058e+07u w=5e+06u l=500000u
X4 a_761_n500# a_661_n597# a_603_n500# w_n1809_n797# sky130_fd_pr__pfet_g5v0d10v5 ad=0p pd=0u as=1.45e+12p ps=1.058e+07u w=5e+06u l=500000u
X5 a_287_n500# a_187_n597# a_129_n500# w_n1809_n797# sky130_fd_pr__pfet_g5v0d10v5 ad=1.45e+12p pd=1.058e+07u as=1.45e+12p ps=1.058e+07u w=5e+06u l=500000u
X6 a_n1293_n500# a_n1393_n597# a_n1451_n500# w_n1809_n797# sky130_fd_pr__pfet_g5v0d10v5 ad=1.45e+12p pd=1.058e+07u as=1.45e+12p ps=1.058e+07u w=5e+06u l=500000u
X7 a_1393_n500# a_1293_n597# a_1235_n500# w_n1809_n797# sky130_fd_pr__pfet_g5v0d10v5 ad=1.45e+12p pd=1.058e+07u as=1.45e+12p ps=1.058e+07u w=5e+06u l=500000u
X8 a_n345_n500# a_n445_n597# a_n503_n500# w_n1809_n797# sky130_fd_pr__pfet_g5v0d10v5 ad=0p pd=0u as=1.45e+12p ps=1.058e+07u w=5e+06u l=500000u
X9 a_129_n500# a_29_n597# a_n29_n500# w_n1809_n797# sky130_fd_pr__pfet_g5v0d10v5 ad=0p pd=0u as=1.45e+12p ps=1.058e+07u w=5e+06u l=500000u
X10 a_445_n500# a_345_n597# a_287_n500# w_n1809_n797# sky130_fd_pr__pfet_g5v0d10v5 ad=1.45e+12p pd=1.058e+07u as=0p ps=0u w=5e+06u l=500000u
X11 a_n1451_n500# a_n1551_n597# a_n1609_n500# w_n1809_n797# sky130_fd_pr__pfet_g5v0d10v5 ad=0p pd=0u as=1.45e+12p ps=1.058e+07u w=5e+06u l=500000u
X12 a_1551_n500# a_1451_n597# a_1393_n500# w_n1809_n797# sky130_fd_pr__pfet_g5v0d10v5 ad=1.45e+12p pd=1.058e+07u as=0p ps=0u w=5e+06u l=500000u
X13 a_n977_n500# a_n1077_n597# a_n1135_n500# w_n1809_n797# sky130_fd_pr__pfet_g5v0d10v5 ad=0p pd=0u as=1.45e+12p ps=1.058e+07u w=5e+06u l=500000u
X14 a_1077_n500# a_977_n597# a_919_n500# w_n1809_n797# sky130_fd_pr__pfet_g5v0d10v5 ad=1.45e+12p pd=1.058e+07u as=0p ps=0u w=5e+06u l=500000u
X15 a_n503_n500# a_n603_n597# a_n661_n500# w_n1809_n797# sky130_fd_pr__pfet_g5v0d10v5 ad=0p pd=0u as=0p ps=0u w=5e+06u l=500000u
X16 a_n29_n500# a_n129_n597# a_n187_n500# w_n1809_n797# sky130_fd_pr__pfet_g5v0d10v5 ad=0p pd=0u as=0p ps=0u w=5e+06u l=500000u
X17 a_603_n500# a_503_n597# a_445_n500# w_n1809_n797# sky130_fd_pr__pfet_g5v0d10v5 ad=0p pd=0u as=0p ps=0u w=5e+06u l=500000u
X18 a_n1135_n500# a_n1235_n597# a_n1293_n500# w_n1809_n797# sky130_fd_pr__pfet_g5v0d10v5 ad=0p pd=0u as=0p ps=0u w=5e+06u l=500000u
X19 a_1235_n500# a_1135_n597# a_1077_n500# w_n1809_n797# sky130_fd_pr__pfet_g5v0d10v5 ad=0p pd=0u as=0p ps=0u w=5e+06u l=500000u
C0 a_345_n597# a_1293_n597# 0.01fF
C1 a_661_n597# a_n761_n597# 0.01fF
C2 a_n761_n597# a_n129_n597# 0.02fF
C3 a_n977_n500# a_n345_n500# 0.11fF
C4 a_661_n597# a_n919_n597# 0.01fF
C5 a_345_n597# a_503_n597# 0.12fF
C6 a_1451_n597# a_187_n597# 0.01fF
C7 a_n1293_n500# a_n345_n500# 0.07fF
C8 w_n1809_n797# a_1451_n597# 0.24fF
C9 a_n129_n597# a_n919_n597# 0.01fF
C10 a_445_n500# a_n345_n500# 0.09fF
C11 w_n1809_n797# a_n1451_n500# 0.13fF
C12 a_n1077_n597# a_503_n597# 0.01fF
C13 a_603_n500# a_1077_n500# 0.15fF
C14 a_761_n500# a_919_n500# 0.56fF
C15 a_n187_n500# a_n1609_n500# 0.05fF
C16 a_n1393_n597# a_n129_n597# 0.01fF
C17 w_n1809_n797# a_1235_n500# 0.09fF
C18 a_n661_n500# a_603_n500# 0.05fF
C19 a_n819_n500# a_n977_n500# 0.56fF
C20 a_n1135_n500# a_n1609_n500# 0.15fF
C21 w_n1809_n797# a_n503_n500# 0.04fF
C22 a_n1293_n500# a_n819_n500# 0.15fF
C23 a_n187_n500# a_761_n500# 0.07fF
C24 a_n819_n500# a_445_n500# 0.05fF
C25 a_287_n500# a_1235_n500# 0.07fF
C26 a_n287_n597# a_n603_n597# 0.04fF
C27 a_977_n597# a_819_n597# 0.12fF
C28 a_287_n500# a_n503_n500# 0.09fF
C29 a_n977_n500# a_n29_n500# 0.07fF
C30 a_919_n500# a_1551_n500# 0.11fF
C31 a_661_n597# a_187_n597# 0.02fF
C32 a_n761_n597# a_503_n597# 0.01fF
C33 a_977_n597# a_29_n597# 0.01fF
C34 a_n129_n597# a_187_n597# 0.04fF
C35 a_n919_n597# a_503_n597# 0.01fF
C36 w_n1809_n797# a_661_n597# 0.22fF
C37 a_n1293_n500# a_n29_n500# 0.05fF
C38 a_445_n500# a_n29_n500# 0.15fF
C39 w_n1809_n797# a_n129_n597# 0.24fF
C40 a_345_n597# a_977_n597# 0.02fF
C41 a_603_n500# a_1393_n500# 0.09fF
C42 a_n1235_n597# a_n287_n597# 0.01fF
C43 a_n661_n500# a_n1609_n500# 0.07fF
C44 a_761_n500# a_1077_n500# 0.24fF
C45 a_n977_n500# a_n1451_n500# 0.15fF
C46 a_n1293_n500# a_n1451_n500# 0.56fF
C47 a_n661_n500# a_761_n500# 0.05fF
C48 a_n819_n500# a_n345_n500# 0.15fF
C49 a_n187_n500# a_919_n500# 0.06fF
C50 a_1293_n597# a_187_n597# 0.01fF
C51 w_n1809_n797# a_1293_n597# 0.19fF
C52 a_503_n597# a_187_n597# 0.04fF
C53 a_445_n500# a_1235_n500# 0.09fF
C54 w_n1809_n797# a_503_n597# 0.23fF
C55 a_n287_n597# a_819_n597# 0.01fF
C56 a_129_n500# a_603_n500# 0.15fF
C57 a_n977_n500# a_n503_n500# 0.15fF
C58 a_n1293_n500# a_n503_n500# 0.09fF
C59 a_n345_n500# a_n29_n500# 0.24fF
C60 a_1077_n500# a_1551_n500# 0.15fF
C61 a_445_n500# a_n503_n500# 0.07fF
C62 a_n287_n597# a_29_n597# 0.04fF
C63 a_n1135_n500# a_n187_n500# 0.07fF
C64 a_345_n597# a_n287_n597# 0.02fF
C65 a_761_n500# a_1393_n500# 0.11fF
C66 a_n1077_n597# a_n287_n597# 0.01fF
C67 a_n1235_n597# a_n603_n597# 0.02fF
C68 a_n819_n500# a_n29_n500# 0.09fF
C69 a_919_n500# a_1077_n500# 0.56fF
C70 a_n345_n500# a_n1451_n500# 0.06fF
C71 w_n1809_n797# a_603_n500# 0.05fF
C72 a_n661_n500# a_919_n500# 0.04fF
C73 a_n187_n500# a_1077_n500# 0.05fF
C74 a_n345_n500# a_1235_n500# 0.04fF
C75 a_1393_n500# a_1551_n500# 0.56fF
C76 a_977_n597# a_187_n597# 0.01fF
C77 w_n1809_n797# a_977_n597# 0.20fF
C78 a_n603_n597# a_819_n597# 0.01fF
C79 a_287_n500# a_603_n500# 0.24fF
C80 a_129_n500# a_761_n500# 0.11fF
C81 a_n503_n500# a_n345_n500# 0.56fF
C82 a_n661_n500# a_n187_n500# 0.15fF
C83 a_n761_n597# a_n287_n597# 0.02fF
C84 a_n287_n597# a_n919_n597# 0.02fF
C85 a_n603_n597# a_29_n597# 0.02fF
C86 a_n819_n500# a_n1451_n500# 0.11fF
C87 a_n1135_n500# a_n661_n500# 0.15fF
C88 a_n1551_n597# a_n445_n597# 0.01fF
C89 a_345_n597# a_n603_n597# 0.01fF
C90 a_n1393_n597# a_n287_n597# 0.01fF
C91 a_919_n500# a_1393_n500# 0.15fF
C92 a_n1077_n597# a_n603_n597# 0.02fF
C93 a_n29_n500# a_n1451_n500# 0.05fF
C94 a_n819_n500# a_n503_n500# 0.24fF
C95 a_n445_n597# a_1135_n597# 0.01fF
C96 w_n1809_n797# a_n1609_n500# 0.30fF
C97 a_129_n500# a_1551_n500# 0.05fF
C98 a_n29_n500# a_1235_n500# 0.05fF
C99 a_n187_n500# a_1393_n500# 0.04fF
C100 a_n1235_n597# a_29_n597# 0.01fF
C101 a_1451_n597# a_1135_n597# 0.04fF
C102 w_n1809_n797# a_761_n500# 0.05fF
C103 a_n503_n500# a_n29_n500# 0.15fF
C104 a_n1235_n597# a_345_n597# 0.01fF
C105 a_n287_n597# a_187_n597# 0.02fF
C106 w_n1809_n797# a_n287_n597# 0.24fF
C107 a_n977_n500# a_603_n500# 0.04fF
C108 a_n1235_n597# a_n1077_n597# 0.12fF
C109 a_129_n500# a_919_n500# 0.09fF
C110 a_287_n500# a_761_n500# 0.15fF
C111 a_445_n500# a_603_n500# 0.56fF
C112 a_n761_n597# a_n603_n597# 0.12fF
C113 a_n603_n597# a_n919_n597# 0.04fF
C114 a_819_n597# a_29_n597# 0.01fF
C115 a_n1551_n597# a_n129_n597# 0.01fF
C116 w_n1809_n797# a_1551_n500# 0.30fF
C117 a_129_n500# a_n187_n500# 0.24fF
C118 a_345_n597# a_819_n597# 0.02fF
C119 a_n1393_n597# a_n603_n597# 0.01fF
C120 a_1077_n500# a_1393_n500# 0.24fF
C121 a_n503_n500# a_n1451_n500# 0.07fF
C122 a_661_n597# a_1135_n597# 0.02fF
C123 a_661_n597# a_n445_n597# 0.01fF
C124 a_n1135_n500# a_129_n500# 0.05fF
C125 a_345_n597# a_29_n597# 0.04fF
C126 a_1135_n597# a_n129_n597# 0.01fF
C127 a_n445_n597# a_n129_n597# 0.04fF
C128 a_287_n500# a_1551_n500# 0.05fF
C129 a_n1077_n597# a_29_n597# 0.01fF
C130 a_n1235_n597# a_n761_n597# 0.02fF
C131 a_1451_n597# a_661_n597# 0.01fF
C132 a_n1235_n597# a_n919_n597# 0.04fF
C133 a_1451_n597# a_n129_n597# 0.01fF
C134 a_n977_n500# a_n1609_n500# 0.11fF
C135 w_n1809_n797# a_919_n500# 0.06fF
C136 a_n1077_n597# a_345_n597# 0.01fF
C137 a_n1293_n500# a_n1609_n500# 0.24fF
C138 a_n1393_n597# a_n1235_n597# 0.12fF
C139 a_n603_n597# a_187_n597# 0.01fF
C140 w_n1809_n797# a_n603_n597# 0.24fF
C141 a_n345_n500# a_603_n500# 0.07fF
C142 w_n1809_n797# a_n187_n500# 0.04fF
C143 a_445_n500# a_761_n500# 0.24fF
C144 a_287_n500# a_919_n500# 0.11fF
C145 a_129_n500# a_1077_n500# 0.07fF
C146 a_n761_n597# a_819_n597# 0.01fF
C147 a_n1135_n500# w_n1809_n797# 0.07fF
C148 a_129_n500# a_n661_n500# 0.09fF
C149 a_1293_n597# a_1135_n597# 0.12fF
C150 a_n761_n597# a_29_n597# 0.01fF
C151 a_1135_n597# a_503_n597# 0.02fF
C152 a_287_n500# a_n187_n500# 0.15fF
C153 a_n445_n597# a_503_n597# 0.01fF
C154 a_29_n597# a_n919_n597# 0.01fF
C155 a_n819_n500# a_603_n500# 0.05fF
C156 a_345_n597# a_n761_n597# 0.01fF
C157 a_1451_n597# a_1293_n597# 0.12fF
C158 a_n1235_n597# a_187_n597# 0.01fF
C159 a_1451_n597# a_503_n597# 0.01fF
C160 a_661_n597# a_n129_n597# 0.01fF
C161 a_345_n597# a_n919_n597# 0.01fF
C162 a_n1235_n597# w_n1809_n797# 0.24fF
C163 a_n1135_n500# a_287_n500# 0.05fF
C164 a_n1393_n597# a_29_n597# 0.01fF
C165 a_445_n500# a_1551_n500# 0.06fF
C166 a_n1077_n597# a_n761_n597# 0.04fF
C167 a_n1077_n597# a_n919_n597# 0.12fF
C168 a_n29_n500# a_603_n500# 0.11fF
C169 a_n345_n500# a_n1609_n500# 0.05fF
C170 w_n1809_n797# a_1077_n500# 0.07fF
C171 a_129_n500# a_1393_n500# 0.05fF
C172 a_n1393_n597# a_n1077_n597# 0.04fF
C173 a_819_n597# a_187_n597# 0.02fF
C174 w_n1809_n797# a_n661_n500# 0.05fF
C175 w_n1809_n797# a_819_n597# 0.21fF
C176 a_n345_n500# a_761_n500# 0.06fF
C177 a_287_n500# a_1077_n500# 0.09fF
C178 a_445_n500# a_919_n500# 0.15fF
C179 a_29_n597# a_187_n597# 0.12fF
C180 w_n1809_n797# a_29_n597# 0.24fF
C181 a_n819_n500# a_n1609_n500# 0.09fF
C182 a_661_n597# a_1293_n597# 0.02fF
C183 a_287_n500# a_n661_n500# 0.07fF
C184 a_n977_n500# a_n187_n500# 0.09fF
C185 a_1293_n597# a_n129_n597# 0.01fF
C186 a_977_n597# a_1135_n597# 0.12fF
C187 a_661_n597# a_503_n597# 0.12fF
C188 a_n761_n597# a_n919_n597# 0.12fF
C189 a_345_n597# a_187_n597# 0.12fF
C190 a_977_n597# a_n445_n597# 0.01fF
C191 a_n129_n597# a_503_n597# 0.02fF
C192 a_n1293_n500# a_n187_n500# 0.06fF
C193 w_n1809_n797# a_345_n597# 0.23fF
C194 a_445_n500# a_n187_n500# 0.11fF
C195 a_n1077_n597# a_187_n597# 0.01fF
C196 a_n819_n500# a_761_n500# 0.04fF
C197 a_n1135_n500# a_n977_n500# 0.56fF
C198 a_1451_n597# a_977_n597# 0.02fF
C199 a_n1077_n597# w_n1809_n797# 0.24fF
C200 a_n1135_n500# a_n1293_n500# 0.56fF
C201 a_n1393_n597# a_n761_n597# 0.02fF
C202 a_n1135_n500# a_445_n500# 0.04fF
C203 a_603_n500# a_1235_n500# 0.11fF
C204 a_n29_n500# a_n1609_n500# 0.04fF
C205 a_n1393_n597# a_n919_n597# 0.02fF
C206 w_n1809_n797# a_1393_n500# 0.13fF
C207 a_n503_n500# a_603_n500# 0.06fF
C208 a_n29_n500# a_761_n500# 0.09fF
C209 a_287_n500# a_1393_n500# 0.06fF
C210 a_n345_n500# a_919_n500# 0.05fF
C211 a_n1551_n597# a_n287_n597# 0.01fF
C212 a_n761_n597# a_187_n597# 0.01fF
C213 a_1293_n597# a_503_n597# 0.01fF
C214 a_n919_n597# a_187_n597# 0.01fF
C215 w_n1809_n797# a_n761_n597# 0.24fF
C216 a_445_n500# a_1077_n500# 0.11fF
C217 w_n1809_n797# a_n919_n597# 0.24fF
C218 a_n1609_n500# a_n1451_n500# 0.56fF
C219 a_n977_n500# a_n661_n500# 0.24fF
C220 w_n1809_n797# a_129_n500# 0.04fF
C221 a_661_n597# a_977_n597# 0.04fF
C222 a_n1293_n500# a_n661_n500# 0.11fF
C223 a_n345_n500# a_n187_n500# 0.56fF
C224 a_445_n500# a_n661_n500# 0.06fF
C225 a_n29_n500# a_1551_n500# 0.04fF
C226 a_977_n597# a_n129_n597# 0.01fF
C227 a_n287_n597# a_1135_n597# 0.01fF
C228 a_n287_n597# a_n445_n597# 0.12fF
C229 a_n1393_n597# a_187_n597# 0.01fF
C230 a_n1393_n597# w_n1809_n797# 0.25fF
C231 a_n1135_n500# a_n345_n500# 0.09fF
C232 a_n503_n500# a_n1609_n500# 0.06fF
C233 a_129_n500# a_287_n500# 0.56fF
C234 a_761_n500# a_1235_n500# 0.15fF
C235 a_n819_n500# a_n187_n500# 0.11fF
C236 a_n503_n500# a_761_n500# 0.05fF
C237 a_n29_n500# a_919_n500# 0.07fF
C238 a_445_n500# a_1393_n500# 0.07fF
C239 a_n1135_n500# a_n819_n500# 0.24fF
C240 w_n1809_n797# a_187_n597# 0.24fF
C241 a_1293_n597# a_977_n597# 0.04fF
C242 a_n345_n500# a_1077_n500# 0.05fF
C243 a_n187_n500# a_n29_n500# 0.56fF
C244 a_n1551_n597# a_n603_n597# 0.01fF
C245 a_1235_n500# a_1551_n500# 0.24fF
C246 a_977_n597# a_503_n597# 0.02fF
C247 a_n661_n500# a_n345_n500# 0.24fF
C248 a_n1135_n500# a_n29_n500# 0.06fF
C249 w_n1809_n797# a_287_n500# 0.04fF
C250 a_661_n597# a_n287_n597# 0.01fF
C251 a_n287_n597# a_n129_n597# 0.12fF
C252 a_n603_n597# a_n445_n597# 0.12fF
C253 a_n977_n500# a_129_n500# 0.06fF
C254 a_n1293_n500# a_129_n500# 0.05fF
C255 a_129_n500# a_445_n500# 0.24fF
C256 a_919_n500# a_1235_n500# 0.24fF
C257 a_n1551_n597# a_n1235_n597# 0.04fF
C258 a_n187_n500# a_n1451_n500# 0.05fF
C259 a_n819_n500# a_n661_n500# 0.56fF
C260 a_n503_n500# a_919_n500# 0.05fF
C261 a_n187_n500# a_1235_n500# 0.05fF
C262 a_n29_n500# a_1077_n500# 0.06fF
C263 a_n1135_n500# a_n1451_n500# 0.24fF
C264 a_n1235_n597# a_n445_n597# 0.01fF
C265 a_n661_n500# a_n29_n500# 0.11fF
C266 a_n503_n500# a_n187_n500# 0.24fF
C267 a_1293_n597# a_n287_n597# 0.01fF
C268 a_n287_n597# a_503_n597# 0.01fF
C269 a_n1135_n500# a_n503_n500# 0.11fF
C270 w_n1809_n797# a_n977_n500# 0.06fF
C271 a_n1551_n597# a_29_n597# 0.01fF
C272 a_n1293_n500# w_n1809_n797# 0.09fF
C273 w_n1809_n797# a_445_n500# 0.04fF
C274 a_661_n597# a_n603_n597# 0.01fF