* NGSPICE file created from analog_top.ext - technology: sky130A

.subckt sky130_fd_pr__nfet_g5v0d10v5_BRTJC6 a_n345_n500# a_1135_n588# a_n603_n588#
+ a_n1393_n588# a_n1609_n500# a_661_n588# a_n1135_n500# a_n977_n500# a_1293_n588#
+ a_n761_n588# a_n503_n500# a_n1551_n588# a_129_n500# a_n1293_n500# a_287_n500# a_n661_n500#
+ a_1451_n588# a_n1451_n500# a_919_n500# a_445_n500# a_1077_n500# a_29_n588# a_n129_n588#
+ a_603_n500# a_187_n588# a_1235_n500# a_n287_n588# a_761_n500# a_819_n588# a_345_n588#
+ a_n1077_n588# a_n29_n500# a_1393_n500# a_n919_n588# a_n1743_n722# a_n187_n500# a_977_n588#
+ a_n445_n588# a_503_n588# a_n1235_n588# a_1551_n500# a_n819_n500#
X0 a_n819_n500# a_n919_n588# a_n977_n500# a_n1743_n722# sky130_fd_pr__nfet_g5v0d10v5 ad=1.45e+12p pd=1.058e+07u as=1.45e+12p ps=1.058e+07u w=5e+06u l=500000u
X1 a_n661_n500# a_n761_n588# a_n819_n500# a_n1743_n722# sky130_fd_pr__nfet_g5v0d10v5 ad=1.45e+12p pd=1.058e+07u as=0p ps=0u w=5e+06u l=500000u
X2 a_919_n500# a_819_n588# a_761_n500# a_n1743_n722# sky130_fd_pr__nfet_g5v0d10v5 ad=1.45e+12p pd=1.058e+07u as=1.45e+12p ps=1.058e+07u w=5e+06u l=500000u
X3 a_n187_n500# a_n287_n588# a_n345_n500# a_n1743_n722# sky130_fd_pr__nfet_g5v0d10v5 ad=1.45e+12p pd=1.058e+07u as=1.45e+12p ps=1.058e+07u w=5e+06u l=500000u
X4 a_761_n500# a_661_n588# a_603_n500# a_n1743_n722# sky130_fd_pr__nfet_g5v0d10v5 ad=0p pd=0u as=1.45e+12p ps=1.058e+07u w=5e+06u l=500000u
X5 a_287_n500# a_187_n588# a_129_n500# a_n1743_n722# sky130_fd_pr__nfet_g5v0d10v5 ad=1.45e+12p pd=1.058e+07u as=1.45e+12p ps=1.058e+07u w=5e+06u l=500000u
X6 a_n1293_n500# a_n1393_n588# a_n1451_n500# a_n1743_n722# sky130_fd_pr__nfet_g5v0d10v5 ad=1.45e+12p pd=1.058e+07u as=1.45e+12p ps=1.058e+07u w=5e+06u l=500000u
X7 a_1393_n500# a_1293_n588# a_1235_n500# a_n1743_n722# sky130_fd_pr__nfet_g5v0d10v5 ad=1.45e+12p pd=1.058e+07u as=1.45e+12p ps=1.058e+07u w=5e+06u l=500000u
X8 a_n345_n500# a_n445_n588# a_n503_n500# a_n1743_n722# sky130_fd_pr__nfet_g5v0d10v5 ad=0p pd=0u as=1.45e+12p ps=1.058e+07u w=5e+06u l=500000u
X9 a_129_n500# a_29_n588# a_n29_n500# a_n1743_n722# sky130_fd_pr__nfet_g5v0d10v5 ad=0p pd=0u as=1.45e+12p ps=1.058e+07u w=5e+06u l=500000u
X10 a_445_n500# a_345_n588# a_287_n500# a_n1743_n722# sky130_fd_pr__nfet_g5v0d10v5 ad=1.45e+12p pd=1.058e+07u as=0p ps=0u w=5e+06u l=500000u
X11 a_n1451_n500# a_n1551_n588# a_n1609_n500# a_n1743_n722# sky130_fd_pr__nfet_g5v0d10v5 ad=0p pd=0u as=1.45e+12p ps=1.058e+07u w=5e+06u l=500000u
X12 a_1551_n500# a_1451_n588# a_1393_n500# a_n1743_n722# sky130_fd_pr__nfet_g5v0d10v5 ad=1.45e+12p pd=1.058e+07u as=0p ps=0u w=5e+06u l=500000u
X13 a_n977_n500# a_n1077_n588# a_n1135_n500# a_n1743_n722# sky130_fd_pr__nfet_g5v0d10v5 ad=0p pd=0u as=1.45e+12p ps=1.058e+07u w=5e+06u l=500000u
X14 a_n503_n500# a_n603_n588# a_n661_n500# a_n1743_n722# sky130_fd_pr__nfet_g5v0d10v5 ad=0p pd=0u as=0p ps=0u w=5e+06u l=500000u
X15 a_1077_n500# a_977_n588# a_919_n500# a_n1743_n722# sky130_fd_pr__nfet_g5v0d10v5 ad=1.45e+12p pd=1.058e+07u as=0p ps=0u w=5e+06u l=500000u
X16 a_n29_n500# a_n129_n588# a_n187_n500# a_n1743_n722# sky130_fd_pr__nfet_g5v0d10v5 ad=0p pd=0u as=0p ps=0u w=5e+06u l=500000u
X17 a_603_n500# a_503_n588# a_445_n500# a_n1743_n722# sky130_fd_pr__nfet_g5v0d10v5 ad=0p pd=0u as=0p ps=0u w=5e+06u l=500000u
X18 a_n1135_n500# a_n1235_n588# a_n1293_n500# a_n1743_n722# sky130_fd_pr__nfet_g5v0d10v5 ad=0p pd=0u as=0p ps=0u w=5e+06u l=500000u
X19 a_1235_n500# a_1135_n588# a_1077_n500# a_n1743_n722# sky130_fd_pr__nfet_g5v0d10v5 ad=0p pd=0u as=0p ps=0u w=5e+06u l=500000u
C0 a_503_n588# a_n1077_n588# 0.01fF
C1 a_287_n500# a_445_n500# 0.56fF
C2 a_129_n500# a_603_n500# 0.15fF
C3 a_n1551_n588# a_n1235_n588# 0.04fF
C4 a_n187_n500# a_n29_n500# 0.56fF
C5 a_n187_n500# a_1393_n500# 0.04fF
C6 a_n29_n500# a_1235_n500# 0.05fF
C7 a_129_n500# a_n977_n500# 0.06fF
C8 a_1077_n500# a_1551_n500# 0.15fF
C9 a_1235_n500# a_1393_n500# 0.56fF
C10 a_1293_n588# a_1451_n588# 0.12fF
C11 a_n129_n588# a_n1077_n588# 0.01fF
C12 a_n503_n500# a_129_n500# 0.11fF
C13 a_1135_n588# a_1451_n588# 0.04fF
C14 a_287_n500# a_n1293_n500# 0.04fF
C15 a_n287_n588# a_n1077_n588# 0.01fF
C16 a_1135_n588# a_1293_n588# 0.12fF
C17 a_n445_n588# a_n761_n588# 0.04fF
C18 a_n819_n500# a_287_n500# 0.06fF
C19 a_n603_n588# a_n761_n588# 0.12fF
C20 a_n1293_n500# a_n1609_n500# 0.24fF
C21 a_129_n500# a_n1451_n500# 0.04fF
C22 a_n29_n500# a_1551_n500# 0.04fF
C23 a_n819_n500# a_n1609_n500# 0.09fF
C24 a_1393_n500# a_1551_n500# 0.56fF
C25 a_n1393_n588# a_n761_n588# 0.02fF
C26 a_n445_n588# a_977_n588# 0.01fF
C27 a_287_n500# a_603_n500# 0.24fF
C28 a_n187_n500# a_129_n500# 0.24fF
C29 a_n761_n588# a_345_n588# 0.01fF
C30 a_129_n500# a_1235_n500# 0.06fF
C31 a_n603_n588# a_977_n588# 0.01fF
C32 a_n445_n588# a_819_n588# 0.01fF
C33 a_287_n500# a_n977_n500# 0.05fF
C34 a_n761_n588# a_187_n588# 0.01fF
C35 a_n603_n588# a_819_n588# 0.01fF
C36 a_n445_n588# a_661_n588# 0.01fF
C37 a_n1077_n588# a_n919_n588# 0.12fF
C38 a_n503_n500# a_287_n500# 0.09fF
C39 a_n761_n588# a_29_n588# 0.01fF
C40 a_n445_n588# a_503_n588# 0.01fF
C41 a_n603_n588# a_661_n588# 0.01fF
C42 a_761_n500# a_919_n500# 0.56fF
C43 a_n977_n500# a_n1609_n500# 0.11fF
C44 a_n819_n500# a_445_n500# 0.05fF
C45 a_345_n588# a_977_n588# 0.02fF
C46 a_n603_n588# a_503_n588# 0.01fF
C47 a_n661_n500# a_761_n500# 0.05fF
C48 a_n503_n500# a_n1609_n500# 0.06fF
C49 a_345_n588# a_819_n588# 0.02fF
C50 a_187_n588# a_977_n588# 0.01fF
C51 a_n445_n588# a_n129_n588# 0.04fF
C52 a_345_n588# a_661_n588# 0.04fF
C53 a_187_n588# a_819_n588# 0.02fF
C54 a_29_n588# a_977_n588# 0.01fF
C55 a_n603_n588# a_n129_n588# 0.02fF
C56 a_n1235_n588# a_n761_n588# 0.02fF
C57 a_n445_n588# a_n287_n588# 0.12fF
C58 a_129_n500# a_1551_n500# 0.05fF
C59 a_n819_n500# a_n1293_n500# 0.15fF
C60 a_445_n500# a_603_n500# 0.56fF
C61 a_187_n588# a_661_n588# 0.02fF
C62 a_345_n588# a_503_n588# 0.12fF
C63 a_29_n588# a_819_n588# 0.01fF
C64 a_n603_n588# a_n287_n588# 0.04fF
C65 a_n187_n500# a_287_n500# 0.15fF
C66 a_287_n500# a_1235_n500# 0.07fF
C67 a_n1451_n500# a_n1609_n500# 0.56fF
C68 a_445_n500# a_n977_n500# 0.05fF
C69 a_n1393_n588# a_n129_n588# 0.01fF
C70 a_187_n588# a_503_n588# 0.04fF
C71 a_29_n588# a_661_n588# 0.02fF
C72 a_n503_n500# a_445_n500# 0.07fF
C73 a_n129_n588# a_345_n588# 0.02fF
C74 a_n1393_n588# a_n287_n588# 0.01fF
C75 a_29_n588# a_503_n588# 0.02fF
C76 a_n345_n500# a_761_n500# 0.06fF
C77 a_n187_n500# a_n1609_n500# 0.05fF
C78 a_761_n500# a_1077_n500# 0.24fF
C79 a_n129_n588# a_187_n588# 0.04fF
C80 a_n287_n588# a_345_n588# 0.02fF
C81 a_n1293_n500# a_n977_n500# 0.24fF
C82 a_n819_n500# a_603_n500# 0.05fF
C83 a_n287_n588# a_187_n588# 0.02fF
C84 a_n129_n588# a_29_n588# 0.12fF
C85 a_n661_n500# a_919_n500# 0.04fF
C86 a_n819_n500# a_n977_n500# 0.56fF
C87 a_n661_n500# a_n1135_n500# 0.15fF
C88 a_n503_n500# a_n1293_n500# 0.09fF
C89 a_n287_n588# a_29_n588# 0.04fF
C90 a_1451_n588# a_977_n588# 0.02fF
C91 a_n1551_n588# a_n761_n588# 0.01fF
C92 a_n445_n588# a_n919_n588# 0.02fF
C93 a_n819_n500# a_n503_n500# 0.24fF
C94 a_287_n500# a_1551_n500# 0.05fF
C95 a_1451_n588# a_819_n588# 0.02fF
C96 a_1293_n588# a_977_n588# 0.04fF
C97 a_n603_n588# a_n919_n588# 0.04fF
C98 a_n187_n500# a_445_n500# 0.11fF
C99 a_1293_n588# a_819_n588# 0.02fF
C100 a_1135_n588# a_977_n588# 0.12fF
C101 a_1451_n588# a_661_n588# 0.01fF
C102 a_445_n500# a_1235_n500# 0.09fF
C103 a_n1235_n588# a_n129_n588# 0.01fF
C104 a_n1451_n500# a_n1293_n500# 0.56fF
C105 a_603_n500# a_n977_n500# 0.04fF
C106 a_n29_n500# a_761_n500# 0.09fF
C107 a_n1393_n588# a_n919_n588# 0.02fF
C108 a_761_n500# a_1393_n500# 0.11fF
C109 a_1451_n588# a_503_n588# 0.01fF
C110 a_n1235_n588# a_n287_n588# 0.01fF
C111 a_1293_n588# a_661_n588# 0.02fF
C112 a_1135_n588# a_819_n588# 0.04fF
C113 a_n503_n500# a_603_n500# 0.06fF
C114 a_n819_n500# a_n1451_n500# 0.11fF
C115 a_345_n588# a_n919_n588# 0.01fF
C116 a_1135_n588# a_661_n588# 0.02fF
C117 a_1293_n588# a_503_n588# 0.01fF
C118 a_n345_n500# a_919_n500# 0.05fF
C119 a_n187_n500# a_n1293_n500# 0.06fF
C120 a_n345_n500# a_n1135_n500# 0.09fF
C121 a_n503_n500# a_n977_n500# 0.15fF
C122 a_919_n500# a_1077_n500# 0.56fF
C123 a_187_n588# a_n919_n588# 0.01fF
C124 a_n129_n588# a_1451_n588# 0.01fF
C125 a_1135_n588# a_503_n588# 0.02fF
C126 a_n819_n500# a_n187_n500# 0.11fF
C127 a_n661_n500# a_n345_n500# 0.24fF
C128 a_29_n588# a_n919_n588# 0.01fF
C129 a_n129_n588# a_1293_n588# 0.01fF
C130 a_n287_n588# a_1293_n588# 0.01fF
C131 a_n129_n588# a_1135_n588# 0.01fF
C132 a_445_n500# a_1551_n500# 0.06fF
C133 a_n1451_n500# a_n977_n500# 0.15fF
C134 a_n1551_n588# a_n129_n588# 0.01fF
C135 a_n287_n588# a_1135_n588# 0.01fF
C136 a_n503_n500# a_n1451_n500# 0.07fF
C137 a_n187_n500# a_603_n500# 0.09fF
C138 a_603_n500# a_1235_n500# 0.11fF
C139 a_n1551_n588# a_n287_n588# 0.01fF
C140 a_n1235_n588# a_n919_n588# 0.04fF
C141 a_129_n500# a_761_n500# 0.11fF
C142 a_n29_n500# a_919_n500# 0.07fF
C143 a_n187_n500# a_n977_n500# 0.09fF
C144 a_n29_n500# a_n1135_n500# 0.06fF
C145 a_919_n500# a_1393_n500# 0.15fF
C146 a_n503_n500# a_n187_n500# 0.24fF
C147 a_n661_n500# a_n29_n500# 0.11fF
C148 a_n345_n500# a_1077_n500# 0.05fF
C149 a_n187_n500# a_n1451_n500# 0.05fF
C150 a_603_n500# a_1551_n500# 0.07fF
C151 a_n1551_n588# a_n919_n588# 0.02fF
C152 a_n345_n500# a_n29_n500# 0.24fF
C153 a_n29_n500# a_1077_n500# 0.06fF
C154 a_287_n500# a_761_n500# 0.15fF
C155 a_129_n500# a_919_n500# 0.09fF
C156 a_n187_n500# a_1235_n500# 0.05fF
C157 a_129_n500# a_n1135_n500# 0.05fF
C158 a_1077_n500# a_1393_n500# 0.24fF
C159 a_n761_n588# a_819_n588# 0.01fF
C160 a_n661_n500# a_129_n500# 0.09fF
C161 a_n761_n588# a_661_n588# 0.01fF
C162 a_n761_n588# a_503_n588# 0.01fF
C163 a_819_n588# a_977_n588# 0.12fF
C164 a_n445_n588# a_n1077_n588# 0.02fF
C165 a_n761_n588# a_n129_n588# 0.02fF
C166 a_661_n588# a_977_n588# 0.04fF
C167 a_n29_n500# a_1393_n500# 0.05fF
C168 a_n603_n588# a_n1077_n588# 0.02fF
C169 a_1235_n500# a_1551_n500# 0.24fF
C170 a_n761_n588# a_n287_n588# 0.02fF
C171 a_661_n588# a_819_n588# 0.12fF
C172 a_503_n588# a_977_n588# 0.02fF
C173 a_n345_n500# a_129_n500# 0.15fF
C174 a_503_n588# a_819_n588# 0.04fF
C175 a_287_n500# a_919_n500# 0.11fF
C176 a_445_n500# a_761_n500# 0.24fF
C177 a_129_n500# a_1077_n500# 0.07fF
C178 a_287_n500# a_n1135_n500# 0.05fF
C179 a_n1393_n588# a_n1077_n588# 0.04fF
C180 a_n129_n588# a_977_n588# 0.01fF
C181 a_503_n588# a_661_n588# 0.12fF
C182 a_n661_n500# a_287_n500# 0.07fF
C183 a_345_n588# a_n1077_n588# 0.01fF
C184 a_n287_n588# a_977_n588# 0.01fF
C185 a_n129_n588# a_819_n588# 0.01fF
C186 a_187_n588# a_n1077_n588# 0.01fF
C187 a_n1135_n500# a_n1609_n500# 0.15fF
C188 a_n129_n588# a_661_n588# 0.01fF
C189 a_n287_n588# a_819_n588# 0.01fF
C190 a_29_n588# a_n1077_n588# 0.01fF
C191 a_n819_n500# a_761_n500# 0.04fF
C192 a_n661_n500# a_n1609_n500# 0.07fF
C193 a_n287_n588# a_661_n588# 0.01fF
C194 a_n129_n588# a_503_n588# 0.02fF
C195 a_n761_n588# a_n919_n588# 0.12fF
C196 a_n29_n500# a_129_n500# 0.56fF
C197 a_n287_n588# a_503_n588# 0.01fF
C198 a_129_n500# a_1393_n500# 0.05fF
C199 a_n345_n500# a_287_n500# 0.11fF
C200 a_603_n500# a_761_n500# 0.56fF
C201 a_n1235_n588# a_n1077_n588# 0.12fF
C202 a_445_n500# a_919_n500# 0.15fF
C203 a_287_n500# a_1077_n500# 0.09fF
C204 a_445_n500# a_n1135_n500# 0.04fF
C205 a_n287_n588# a_n129_n588# 0.12fF
C206 a_n661_n500# a_445_n500# 0.06fF
C207 a_n603_n588# a_n445_n588# 0.12fF
C208 a_n503_n500# a_761_n500# 0.05fF
C209 a_n345_n500# a_n1609_n500# 0.05fF
C210 a_n1293_n500# a_n1135_n500# 0.56fF
C211 a_661_n588# a_n919_n588# 0.01fF
C212 a_n1393_n588# a_n445_n588# 0.01fF
C213 a_n661_n500# a_n1293_n500# 0.11fF
C214 a_n819_n500# a_n1135_n500# 0.24fF
C215 a_503_n588# a_n919_n588# 0.01fF
C216 a_n1393_n588# a_n603_n588# 0.01fF
C217 a_n445_n588# a_345_n588# 0.01fF
C218 a_n29_n500# a_287_n500# 0.24fF
C219 a_n819_n500# a_n661_n500# 0.56fF
C220 a_287_n500# a_1393_n500# 0.06fF
C221 a_n603_n588# a_345_n588# 0.01fF
C222 a_n445_n588# a_187_n588# 0.02fF
C223 a_n1551_n588# a_n1077_n588# 0.02fF
C224 a_n345_n500# a_445_n500# 0.09fF
C225 a_n129_n588# a_n919_n588# 0.01fF
C226 a_603_n500# a_919_n500# 0.24fF
C227 a_445_n500# a_1077_n500# 0.11fF
C228 a_n445_n588# a_29_n588# 0.02fF
C229 a_n603_n588# a_187_n588# 0.01fF
C230 a_n187_n500# a_761_n500# 0.07fF
C231 a_n29_n500# a_n1609_n500# 0.04fF
C232 a_n287_n588# a_n919_n588# 0.02fF
C233 a_761_n500# a_1235_n500# 0.15fF
C234 a_n1135_n500# a_n977_n500# 0.56fF
C235 a_n603_n588# a_29_n588# 0.02fF
C236 a_n661_n500# a_603_n500# 0.05fF
C237 a_n1393_n588# a_187_n588# 0.01fF
C238 a_n503_n500# a_919_n500# 0.05fF
C239 a_n345_n500# a_n1293_n500# 0.07fF
C240 a_n503_n500# a_n1135_n500# 0.11fF
C241 a_n661_n500# a_n977_n500# 0.24fF
C242 a_n1393_n588# a_29_n588# 0.01fF
C243 a_187_n588# a_345_n588# 0.12fF
C244 a_n445_n588# a_n1235_n588# 0.01fF
C245 a_n819_n500# a_n345_n500# 0.15fF
C246 a_n661_n500# a_n503_n500# 0.56fF
C247 a_29_n588# a_345_n588# 0.04fF
C248 a_n603_n588# a_n1235_n588# 0.02fF
C249 a_129_n500# a_287_n500# 0.56fF
C250 a_n29_n500# a_445_n500# 0.15fF
C251 a_29_n588# a_187_n588# 0.12fF
C252 a_445_n500# a_1393_n500# 0.07fF
C253 a_n1451_n500# a_n1135_n500# 0.24fF
C254 a_761_n500# a_1551_n500# 0.09fF
C255 a_n1393_n588# a_n1235_n588# 0.12fF
C256 a_n661_n500# a_n1451_n500# 0.09fF
C257 a_n345_n500# a_603_n500# 0.07fF
C258 a_603_n500# a_1077_n500# 0.15fF
C259 a_n1235_n588# a_345_n588# 0.01fF
C260 a_n187_n500# a_919_n500# 0.06fF
C261 a_n187_n500# a_n1135_n500# 0.07fF
C262 a_n29_n500# a_n1293_n500# 0.05fF
C263 a_n345_n500# a_n977_n500# 0.11fF
C264 a_919_n500# a_1235_n500# 0.24fF
C265 a_n1235_n588# a_187_n588# 0.01fF
C266 a_n445_n588# a_1135_n588# 0.01fF
C267 a_n661_n500# a_n187_n500# 0.15fF
C268 a_n819_n500# a_n29_n500# 0.09fF
C269 a_n503_n500# a_n345_n500# 0.56fF
C270 a_n503_n500# a_1077_n500# 0.04fF
C271 a_n1235_n588# a_29_n588# 0.01fF
C272 a_n1551_n588# a_n445_n588# 0.01fF
C273 a_1451_n588# a_345_n588# 0.01fF
C274 a_n1551_n588# a_n603_n588# 0.01fF
C275 a_1451_n588# a_187_n588# 0.01fF
C276 a_1293_n588# a_345_n588# 0.01fF
C277 a_n345_n500# a_n1451_n500# 0.06fF
C278 a_n29_n500# a_603_n500# 0.11fF
C279 a_129_n500# a_445_n500# 0.24fF
C280 a_n761_n588# a_n1077_n588# 0.04fF
C281 a_603_n500# a_1393_n500# 0.09fF
C282 a_1293_n588# a_187_n588# 0.01fF
C283 a_1451_n588# a_29_n588# 0.01fF
C284 a_1135_n588# a_345_n588# 0.01fF
C285 a_n1551_n588# a_n1393_n588# 0.12fF
C286 a_n29_n500# a_n977_n500# 0.07fF
C287 a_919_n500# a_1551_n500# 0.11fF
C288 a_1293_n588# a_29_n588# 0.01fF
C289 a_1135_n588# a_187_n588# 0.01fF
C290 a_n345_n500# a_n187_n500# 0.56fF
C291 a_n503_n500# a_n29_n500# 0.15fF
C292 a_n187_n500# a_1077_n500# 0.05fF
C293 a_n345_n500# a_1235_n500# 0.04fF
C294 a_129_n500# a_n1293_n500# 0.05fF
C295 a_1077_n500# a_1235_n500# 0.56fF
C296 a_1135_n588# a_29_n588# 0.01fF
C297 a_n819_n500# a_129_n500# 0.07fF
C298 a_n1551_n588# a_29_n588# 0.01fF
C299 a_n29_n500# a_n1451_n500# 0.05fF
C300 a_1551_n500# a_n1743_n722# 0.30fF
C301 a_1393_n500# a_n1743_n722# 0.13fF
C302 a_1235_n500# a_n1743_n722# 0.09fF
C303 a_1077_n500# a_n1743_n722# 0.07fF
C304 a_919_n500# a_n1743_n722# 0.06fF
C305 a_761_n500# a_n1743_n722# 0.05fF
C306 a_603_n500# a_n1743_n722# 0.05fF
C307 a_445_n500# a_n1743_n722# 0.04fF
C308 a_287_n500# a_n1743_n722# 0.04fF
C309 a_129_n500# a_n1743_n722# 0.04fF
C310 a_n29_n500# a_n1743_n722# 0.02fF
C311 a_n187_n500# a_n1743_n722# 0.04fF
C312 a_n345_n500# a_n1743_n722# 0.04fF
C313 a_n503_n500# a_n1743_n722# 0.04fF
C314 a_n661_n500# a_n1743_n722# 0.05fF
C315 a_n819_n500# a_n1743_n722# 0.05fF
C316 a_n977_n500# a_n1743_n722# 0.06fF
C317 a_n1135_n500# a_n1743_n722# 0.07fF
C318 a_n1293_n500# a_n1743_n722# 0.09fF
C319 a_n1451_n500# a_n1743_n722# 0.13fF
C320 a_n1609_n500# a_n1743_n722# 0.30fF
C321 a_1451_n588# a_n1743_n722# 0.28fF
C322 a_1293_n588# a_n1743_n722# 0.23fF
C323 a_1135_n588# a_n1743_n722# 0.24fF
C324 a_977_n588# a_n1743_n722# 0.25fF
C325 a_819_n588# a_n1743_n722# 0.26fF
C326 a_661_n588# a_n1743_n722# 0.26fF
C327 a_503_n588# a_n1743_n722# 0.27fF
C328 a_345_n588# a_n1743_n722# 0.28fF
C329 a_187_n588# a_n1743_n722# 0.28fF
C330 a_29_n588# a_n1743_n722# 0.28fF
C331 a_n129_n588# a_n1743_n722# 0.28fF
C332 a_n287_n588# a_n1743_n722# 0.28fF
C333 a_n445_n588# a_n1743_n722# 0.28fF
C334 a_n603_n588# a_n1743_n722# 0.28fF
C335 a_n761_n588# a_n1743_n722# 0.28fF
C336 a_n919_n588# a_n1743_n722# 0.28fF
C337 a_n1077_n588# a_n1743_n722# 0.28fF
C338 a_n1235_n588# a_n1743_n722# 0.29fF
C339 a_n1393_n588# a_n1743_n722# 0.29fF
C340 a_n1551_n588# a_n1743_n722# 0.34fF
.ends

.subckt sky130_fd_pr__pfet_g5v0d10v5_CADZ46 a_n345_n500# a_n1609_n500# a_n1135_n500#
+ a_29_n597# a_n977_n500# a_n129_n597# a_187_n597# a_n503_n500# a_129_n500# a_n1293_n500#
+ a_n287_n597# a_819_n597# a_n1077_n597# a_287_n500# a_n661_n500# a_345_n597# a_n919_n597#
+ a_n1451_n500# a_977_n597# a_n445_n597# a_919_n500# a_n1235_n597# a_445_n500# a_503_n597#
+ w_n1809_n797# a_n603_n597# a_1077_n500# a_1135_n597# a_661_n597# a_n1393_n597# a_603_n500#
+ a_1293_n597# a_n761_n597# a_1235_n500# a_n1551_n597# a_761_n500# a_n29_n500# a_1451_n597#
+ a_1393_n500# a_n187_n500# a_1551_n500# a_n819_n500# VSUBS
X0 a_n819_n500# a_n919_n597# a_n977_n500# w_n1809_n797# sky130_fd_pr__pfet_g5v0d10v5 ad=1.45e+12p pd=1.058e+07u as=1.45e+12p ps=1.058e+07u w=5e+06u l=500000u
X1 a_n661_n500# a_n761_n597# a_n819_n500# w_n1809_n797# sky130_fd_pr__pfet_g5v0d10v5 ad=1.45e+12p pd=1.058e+07u as=0p ps=0u w=5e+06u l=500000u
X2 a_919_n500# a_819_n597# a_761_n500# w_n1809_n797# sky130_fd_pr__pfet_g5v0d10v5 ad=1.45e+12p pd=1.058e+07u as=1.45e+12p ps=1.058e+07u w=5e+06u l=500000u
X3 a_n187_n500# a_n287_n597# a_n345_n500# w_n1809_n797# sky130_fd_pr__pfet_g5v0d10v5 ad=1.45e+12p pd=1.058e+07u as=1.45e+12p ps=1.058e+07u w=5e+06u l=500000u
X4 a_761_n500# a_661_n597# a_603_n500# w_n1809_n797# sky130_fd_pr__pfet_g5v0d10v5 ad=0p pd=0u as=1.45e+12p ps=1.058e+07u w=5e+06u l=500000u
X5 a_287_n500# a_187_n597# a_129_n500# w_n1809_n797# sky130_fd_pr__pfet_g5v0d10v5 ad=1.45e+12p pd=1.058e+07u as=1.45e+12p ps=1.058e+07u w=5e+06u l=500000u
X6 a_n1293_n500# a_n1393_n597# a_n1451_n500# w_n1809_n797# sky130_fd_pr__pfet_g5v0d10v5 ad=1.45e+12p pd=1.058e+07u as=1.45e+12p ps=1.058e+07u w=5e+06u l=500000u
X7 a_1393_n500# a_1293_n597# a_1235_n500# w_n1809_n797# sky130_fd_pr__pfet_g5v0d10v5 ad=1.45e+12p pd=1.058e+07u as=1.45e+12p ps=1.058e+07u w=5e+06u l=500000u
X8 a_n345_n500# a_n445_n597# a_n503_n500# w_n1809_n797# sky130_fd_pr__pfet_g5v0d10v5 ad=0p pd=0u as=1.45e+12p ps=1.058e+07u w=5e+06u l=500000u
X9 a_129_n500# a_29_n597# a_n29_n500# w_n1809_n797# sky130_fd_pr__pfet_g5v0d10v5 ad=0p pd=0u as=1.45e+12p ps=1.058e+07u w=5e+06u l=500000u
X10 a_445_n500# a_345_n597# a_287_n500# w_n1809_n797# sky130_fd_pr__pfet_g5v0d10v5 ad=1.45e+12p pd=1.058e+07u as=0p ps=0u w=5e+06u l=500000u
X11 a_n1451_n500# a_n1551_n597# a_n1609_n500# w_n1809_n797# sky130_fd_pr__pfet_g5v0d10v5 ad=0p pd=0u as=1.45e+12p ps=1.058e+07u w=5e+06u l=500000u
X12 a_1551_n500# a_1451_n597# a_1393_n500# w_n1809_n797# sky130_fd_pr__pfet_g5v0d10v5 ad=1.45e+12p pd=1.058e+07u as=0p ps=0u w=5e+06u l=500000u
X13 a_n977_n500# a_n1077_n597# a_n1135_n500# w_n1809_n797# sky130_fd_pr__pfet_g5v0d10v5 ad=0p pd=0u as=1.45e+12p ps=1.058e+07u w=5e+06u l=500000u
X14 a_1077_n500# a_977_n597# a_919_n500# w_n1809_n797# sky130_fd_pr__pfet_g5v0d10v5 ad=1.45e+12p pd=1.058e+07u as=0p ps=0u w=5e+06u l=500000u
X15 a_n503_n500# a_n603_n597# a_n661_n500# w_n1809_n797# sky130_fd_pr__pfet_g5v0d10v5 ad=0p pd=0u as=0p ps=0u w=5e+06u l=500000u
X16 a_n29_n500# a_n129_n597# a_n187_n500# w_n1809_n797# sky130_fd_pr__pfet_g5v0d10v5 ad=0p pd=0u as=0p ps=0u w=5e+06u l=500000u
X17 a_603_n500# a_503_n597# a_445_n500# w_n1809_n797# sky130_fd_pr__pfet_g5v0d10v5 ad=0p pd=0u as=0p ps=0u w=5e+06u l=500000u
X18 a_n1135_n500# a_n1235_n597# a_n1293_n500# w_n1809_n797# sky130_fd_pr__pfet_g5v0d10v5 ad=0p pd=0u as=0p ps=0u w=5e+06u l=500000u
X19 a_1235_n500# a_1135_n597# a_1077_n500# w_n1809_n797# sky130_fd_pr__pfet_g5v0d10v5 ad=0p pd=0u as=0p ps=0u w=5e+06u l=500000u
C0 a_n1551_n597# a_n919_n597# 0.02fF
C1 a_n1077_n597# a_345_n597# 0.01fF
C2 a_n29_n500# a_603_n500# 0.11fF
C3 a_n345_n500# a_n1609_n500# 0.05fF
C4 w_n1809_n797# a_1077_n500# 0.07fF
C5 a_129_n500# a_1393_n500# 0.05fF
C6 a_n1077_n597# a_n1551_n597# 0.02fF
C7 a_819_n597# a_187_n597# 0.02fF
C8 w_n1809_n797# a_n661_n500# 0.05fF
C9 a_n345_n500# a_761_n500# 0.06fF
C10 w_n1809_n797# a_819_n597# 0.21fF
C11 a_287_n500# a_1077_n500# 0.09fF
C12 a_445_n500# a_919_n500# 0.15fF
C13 a_29_n597# a_187_n597# 0.12fF
C14 w_n1809_n797# a_29_n597# 0.24fF
C15 a_n29_n500# a_1551_n500# 0.04fF
C16 a_n819_n500# a_n1609_n500# 0.09fF
C17 a_661_n597# a_1293_n597# 0.02fF
C18 a_287_n500# a_n661_n500# 0.07fF
C19 a_977_n597# a_1135_n597# 0.12fF
C20 a_661_n597# a_503_n597# 0.12fF
C21 a_n977_n500# a_n187_n500# 0.09fF
C22 a_n761_n597# a_n919_n597# 0.12fF
C23 a_1293_n597# a_n129_n597# 0.01fF
C24 a_345_n597# a_187_n597# 0.12fF
C25 a_977_n597# a_n445_n597# 0.01fF
C26 w_n1809_n797# a_345_n597# 0.23fF
C27 a_n1293_n500# a_n187_n500# 0.06fF
C28 a_n129_n597# a_503_n597# 0.02fF
C29 a_445_n500# a_n187_n500# 0.11fF
C30 a_n1135_n500# a_n977_n500# 0.56fF
C31 a_n819_n500# a_761_n500# 0.04fF
C32 a_n1551_n597# w_n1809_n797# 0.30fF
C33 a_1451_n597# a_977_n597# 0.02fF
C34 a_n1135_n500# a_n1293_n500# 0.56fF
C35 a_n1077_n597# a_n761_n597# 0.04fF
C36 a_n1135_n500# a_445_n500# 0.04fF
C37 a_603_n500# a_1235_n500# 0.11fF
C38 a_n29_n500# a_n1609_n500# 0.04fF
C39 a_n1077_n597# a_n919_n597# 0.12fF
C40 w_n1809_n797# a_1393_n500# 0.13fF
C41 a_n503_n500# a_603_n500# 0.06fF
C42 a_n29_n500# a_761_n500# 0.09fF
C43 a_287_n500# a_1393_n500# 0.06fF
C44 a_1235_n500# a_1551_n500# 0.24fF
C45 a_n345_n500# a_919_n500# 0.05fF
C46 a_n1235_n597# a_n287_n597# 0.01fF
C47 a_n761_n597# a_187_n597# 0.01fF
C48 a_1293_n597# a_503_n597# 0.01fF
C49 w_n1809_n797# a_n761_n597# 0.24fF
C50 a_n919_n597# a_187_n597# 0.01fF
C51 a_445_n500# a_1077_n500# 0.11fF
C52 w_n1809_n797# a_n919_n597# 0.24fF
C53 a_n1609_n500# a_n1451_n500# 0.56fF
C54 a_n977_n500# a_n661_n500# 0.24fF
C55 w_n1809_n797# a_129_n500# 0.04fF
C56 a_661_n597# a_977_n597# 0.04fF
C57 a_n1293_n500# a_n661_n500# 0.11fF
C58 a_n345_n500# a_n187_n500# 0.56fF
C59 a_445_n500# a_n661_n500# 0.06fF
C60 a_n287_n597# a_1135_n597# 0.01fF
C61 a_977_n597# a_n129_n597# 0.01fF
C62 a_n287_n597# a_n445_n597# 0.12fF
C63 a_n1077_n597# a_187_n597# 0.01fF
C64 a_n1077_n597# w_n1809_n797# 0.24fF
C65 a_n1135_n500# a_n345_n500# 0.09fF
C66 a_n503_n500# a_n1609_n500# 0.06fF
C67 a_129_n500# a_287_n500# 0.56fF
C68 a_761_n500# a_1235_n500# 0.15fF
C69 a_n503_n500# a_761_n500# 0.05fF
C70 a_n819_n500# a_n187_n500# 0.11fF
C71 a_n29_n500# a_919_n500# 0.07fF
C72 a_445_n500# a_1393_n500# 0.07fF
C73 a_n1135_n500# a_n819_n500# 0.24fF
C74 w_n1809_n797# a_187_n597# 0.24fF
C75 a_1293_n597# a_977_n597# 0.04fF
C76 a_n345_n500# a_1077_n500# 0.05fF
C77 a_n1235_n597# a_n603_n597# 0.02fF
C78 a_n187_n500# a_n29_n500# 0.56fF
C79 a_977_n597# a_503_n597# 0.02fF
C80 a_n661_n500# a_n345_n500# 0.24fF
C81 a_n1135_n500# a_n29_n500# 0.06fF
C82 w_n1809_n797# a_287_n500# 0.04fF
C83 a_661_n597# a_n287_n597# 0.01fF
C84 a_n287_n597# a_n129_n597# 0.12fF
C85 a_n603_n597# a_n445_n597# 0.12fF
C86 a_n977_n500# a_129_n500# 0.06fF
C87 a_n1293_n500# a_129_n500# 0.05fF
C88 a_129_n500# a_445_n500# 0.24fF
C89 a_919_n500# a_1235_n500# 0.24fF
C90 a_n1235_n597# a_n1393_n597# 0.12fF
C91 a_n187_n500# a_n1451_n500# 0.05fF
C92 a_n819_n500# a_n661_n500# 0.56fF
C93 a_n503_n500# a_919_n500# 0.05fF
C94 a_n187_n500# a_1235_n500# 0.05fF
C95 a_n29_n500# a_1077_n500# 0.06fF
C96 a_n1393_n597# a_n445_n597# 0.01fF
C97 a_n1135_n500# a_n1451_n500# 0.24fF
C98 a_n661_n500# a_n29_n500# 0.11fF
C99 a_n503_n500# a_n187_n500# 0.24fF
C100 a_1293_n597# a_n287_n597# 0.01fF
C101 a_603_n500# a_1551_n500# 0.07fF
C102 a_n287_n597# a_503_n597# 0.01fF
C103 a_n1135_n500# a_n503_n500# 0.11fF
C104 w_n1809_n797# a_n977_n500# 0.06fF
C105 a_n1235_n597# a_29_n597# 0.01fF
C106 a_n1293_n500# w_n1809_n797# 0.09fF
C107 w_n1809_n797# a_445_n500# 0.04fF
C108 a_661_n597# a_n603_n597# 0.01fF
C109 a_n603_n597# a_n129_n597# 0.02fF
C110 a_819_n597# a_1135_n597# 0.04fF
C111 a_819_n597# a_n445_n597# 0.01fF
C112 a_n1235_n597# a_345_n597# 0.01fF
C113 a_129_n500# a_n345_n500# 0.15fF
C114 a_29_n597# a_1135_n597# 0.01fF
C115 a_n977_n500# a_287_n500# 0.05fF
C116 a_n445_n597# a_29_n597# 0.02fF
C117 a_1451_n597# a_819_n597# 0.02fF
C118 a_n1293_n500# a_287_n500# 0.04fF
C119 a_n1235_n597# a_n1551_n597# 0.04fF
C120 a_287_n500# a_445_n500# 0.56fF
C121 a_1077_n500# a_1235_n500# 0.56fF
C122 a_n29_n500# a_1393_n500# 0.05fF
C123 a_n661_n500# a_n1451_n500# 0.09fF
C124 a_345_n597# a_1135_n597# 0.01fF
C125 a_345_n597# a_n445_n597# 0.01fF
C126 a_1451_n597# a_29_n597# 0.01fF
C127 a_603_n500# a_761_n500# 0.56fF
C128 a_n503_n500# a_1077_n500# 0.04fF
C129 a_n1551_n597# a_n445_n597# 0.01fF
C130 a_1451_n597# a_345_n597# 0.01fF
C131 a_n1393_n597# a_n129_n597# 0.01fF
C132 a_n819_n500# a_129_n500# 0.07fF
C133 a_n661_n500# a_n503_n500# 0.56fF
C134 a_977_n597# a_n287_n597# 0.01fF
C135 a_761_n500# a_1551_n500# 0.09fF
C136 a_n603_n597# a_503_n597# 0.01fF
C137 a_n1235_n597# a_n761_n597# 0.02fF
C138 w_n1809_n797# a_n345_n500# 0.04fF
C139 a_n1235_n597# a_n919_n597# 0.04fF
C140 a_129_n500# a_n29_n500# 0.56fF
C141 a_661_n597# a_819_n597# 0.12fF
C142 a_819_n597# a_n129_n597# 0.01fF
C143 a_1235_n500# a_1393_n500# 0.56fF
C144 a_n761_n597# a_n445_n597# 0.04fF
C145 a_661_n597# a_29_n597# 0.02fF
C146 a_n1235_n597# a_n1077_n597# 0.12fF
C147 a_n1293_n500# a_n977_n500# 0.24fF
C148 a_29_n597# a_n129_n597# 0.12fF
C149 a_287_n500# a_n345_n500# 0.11fF
C150 a_n445_n597# a_n919_n597# 0.02fF
C151 a_n977_n500# a_445_n500# 0.05fF
C152 a_345_n597# a_661_n597# 0.04fF
C153 a_n819_n500# w_n1809_n797# 0.05fF
C154 a_345_n597# a_n129_n597# 0.02fF
C155 a_603_n500# a_919_n500# 0.24fF
C156 a_n1077_n597# a_n445_n597# 0.02fF
C157 a_n1551_n597# a_n129_n597# 0.01fF
C158 a_129_n500# a_n1451_n500# 0.04fF
C159 a_n819_n500# a_287_n500# 0.06fF
C160 a_n187_n500# a_603_n500# 0.09fF
C161 w_n1809_n797# a_n29_n500# 0.02fF
C162 a_n1235_n597# a_187_n597# 0.01fF
C163 a_129_n500# a_1235_n500# 0.06fF
C164 a_n1235_n597# w_n1809_n797# 0.24fF
C165 a_977_n597# a_n603_n597# 0.01fF
C166 a_1293_n597# a_819_n597# 0.02fF
C167 a_919_n500# a_1551_n500# 0.11fF
C168 a_819_n597# a_503_n597# 0.04fF
C169 a_129_n500# a_n503_n500# 0.11fF
C170 a_1293_n597# a_29_n597# 0.01fF
C171 a_1135_n597# a_187_n597# 0.01fF
C172 a_29_n597# a_503_n597# 0.02fF
C173 a_n445_n597# a_187_n597# 0.02fF
C174 a_287_n500# a_n29_n500# 0.24fF
C175 w_n1809_n797# a_1135_n597# 0.20fF
C176 w_n1809_n797# a_n445_n597# 0.24fF
C177 a_345_n597# a_1293_n597# 0.01fF
C178 a_661_n597# a_n761_n597# 0.01fF
C179 a_n761_n597# a_n129_n597# 0.02fF
C180 a_1451_n597# a_187_n597# 0.01fF
C181 a_345_n597# a_503_n597# 0.12fF
C182 a_n977_n500# a_n345_n500# 0.11fF
C183 a_661_n597# a_n919_n597# 0.01fF
C184 a_n129_n597# a_n919_n597# 0.01fF
C185 w_n1809_n797# a_1451_n597# 0.24fF
C186 a_n1293_n500# a_n345_n500# 0.07fF
C187 a_445_n500# a_n345_n500# 0.09fF
C188 w_n1809_n797# a_n1451_n500# 0.13fF
C189 a_603_n500# a_1077_n500# 0.15fF
C190 a_761_n500# a_919_n500# 0.56fF
C191 a_n187_n500# a_n1609_n500# 0.05fF
C192 a_n1077_n597# a_n129_n597# 0.01fF
C193 w_n1809_n797# a_1235_n500# 0.09fF
C194 a_n661_n500# a_603_n500# 0.05fF
C195 a_n819_n500# a_n977_n500# 0.56fF
C196 a_n1135_n500# a_n1609_n500# 0.15fF
C197 w_n1809_n797# a_n503_n500# 0.04fF
C198 a_n1293_n500# a_n819_n500# 0.15fF
C199 a_n187_n500# a_761_n500# 0.07fF
C200 a_n819_n500# a_445_n500# 0.05fF
C201 a_287_n500# a_1235_n500# 0.07fF
C202 a_n287_n597# a_n603_n597# 0.04fF
C203 a_977_n597# a_819_n597# 0.12fF
C204 a_1077_n500# a_1551_n500# 0.15fF
C205 a_287_n500# a_n503_n500# 0.09fF
C206 a_661_n597# a_187_n597# 0.02fF
C207 a_n761_n597# a_503_n597# 0.01fF
C208 a_n977_n500# a_n29_n500# 0.07fF
C209 a_977_n597# a_29_n597# 0.01fF
C210 a_n129_n597# a_187_n597# 0.04fF
C211 a_n919_n597# a_503_n597# 0.01fF
C212 a_n1293_n500# a_n29_n500# 0.05fF
C213 w_n1809_n797# a_661_n597# 0.22fF
C214 a_445_n500# a_n29_n500# 0.15fF
C215 w_n1809_n797# a_n129_n597# 0.24fF
C216 a_345_n597# a_977_n597# 0.02fF
C217 a_603_n500# a_1393_n500# 0.09fF
C218 a_n1077_n597# a_503_n597# 0.01fF
C219 a_n1393_n597# a_n287_n597# 0.01fF
C220 a_n661_n500# a_n1609_n500# 0.07fF
C221 a_761_n500# a_1077_n500# 0.24fF
C222 a_n977_n500# a_n1451_n500# 0.15fF
C223 a_n1293_n500# a_n1451_n500# 0.56fF
C224 a_n661_n500# a_761_n500# 0.05fF
C225 a_n819_n500# a_n345_n500# 0.15fF
C226 a_1393_n500# a_1551_n500# 0.56fF
C227 a_n187_n500# a_919_n500# 0.06fF
C228 a_1293_n597# a_187_n597# 0.01fF
C229 w_n1809_n797# a_1293_n597# 0.19fF
C230 a_503_n597# a_187_n597# 0.04fF
C231 a_445_n500# a_1235_n500# 0.09fF
C232 w_n1809_n797# a_503_n597# 0.23fF
C233 a_n287_n597# a_819_n597# 0.01fF
C234 a_129_n500# a_603_n500# 0.15fF
C235 a_n977_n500# a_n503_n500# 0.15fF
C236 a_n1293_n500# a_n503_n500# 0.09fF
C237 a_n345_n500# a_n29_n500# 0.24fF
C238 a_445_n500# a_n503_n500# 0.07fF
C239 a_n287_n597# a_29_n597# 0.04fF
C240 a_n1135_n500# a_n187_n500# 0.07fF
C241 a_345_n597# a_n287_n597# 0.02fF
C242 a_761_n500# a_1393_n500# 0.11fF
C243 a_129_n500# a_1551_n500# 0.05fF
C244 a_n1551_n597# a_n287_n597# 0.01fF
C245 a_n1393_n597# a_n603_n597# 0.01fF
C246 a_n819_n500# a_n29_n500# 0.09fF
C247 a_919_n500# a_1077_n500# 0.56fF
C248 a_n345_n500# a_n1451_n500# 0.06fF
C249 w_n1809_n797# a_603_n500# 0.05fF
C250 a_n661_n500# a_919_n500# 0.04fF
C251 a_n345_n500# a_1235_n500# 0.04fF
C252 a_n187_n500# a_1077_n500# 0.05fF
C253 a_977_n597# a_187_n597# 0.01fF
C254 w_n1809_n797# a_977_n597# 0.20fF
C255 a_n603_n597# a_819_n597# 0.01fF
C256 a_129_n500# a_761_n500# 0.11fF
C257 a_287_n500# a_603_n500# 0.24fF
C258 a_n661_n500# a_n187_n500# 0.15fF
C259 a_n503_n500# a_n345_n500# 0.56fF
C260 a_n761_n597# a_n287_n597# 0.02fF
C261 a_n287_n597# a_n919_n597# 0.02fF
C262 a_n603_n597# a_29_n597# 0.02fF
C263 a_n819_n500# a_n1451_n500# 0.11fF
C264 w_n1809_n797# a_1551_n500# 0.30fF
C265 a_n1135_n500# a_n661_n500# 0.15fF
C266 a_n1235_n597# a_n445_n597# 0.01fF
C267 a_345_n597# a_n603_n597# 0.01fF
C268 a_n1077_n597# a_n287_n597# 0.01fF
C269 a_919_n500# a_1393_n500# 0.15fF
C270 a_287_n500# a_1551_n500# 0.05fF
C271 a_n1551_n597# a_n603_n597# 0.01fF
C272 a_n29_n500# a_n1451_n500# 0.05fF
C273 a_n819_n500# a_n503_n500# 0.24fF
C274 a_n445_n597# a_1135_n597# 0.01fF