* NGSPICE file created from analog_top.ext - technology: sky130A

.subckt sky130_fd_pr__nfet_g5v0d10v5_BRTJC6 a_n345_n500# a_1135_n588# a_n603_n588#
+ a_n1393_n588# a_n1609_n500# a_661_n588# a_n1135_n500# a_n977_n500# a_1293_n588#
+ a_n761_n588# a_n503_n500# a_n1551_n588# a_129_n500# a_n1293_n500# a_287_n500# a_n661_n500#
+ a_1451_n588# a_n1451_n500# a_919_n500# a_445_n500# a_1077_n500# a_29_n588# a_n129_n588#
+ a_603_n500# a_187_n588# a_1235_n500# a_n287_n588# a_761_n500# a_819_n588# a_345_n588#
+ a_n1077_n588# a_n29_n500# a_1393_n500# a_n919_n588# a_n1743_n722# a_n187_n500# a_977_n588#
+ a_n445_n588# a_503_n588# a_n1235_n588# a_1551_n500# a_n819_n500#
X0 a_n819_n500# a_n919_n588# a_n977_n500# a_n1743_n722# sky130_fd_pr__nfet_g5v0d10v5 ad=1.45e+12p pd=1.058e+07u as=1.45e+12p ps=1.058e+07u w=5e+06u l=500000u
X1 a_n661_n500# a_n761_n588# a_n819_n500# a_n1743_n722# sky130_fd_pr__nfet_g5v0d10v5 ad=1.45e+12p pd=1.058e+07u as=0p ps=0u w=5e+06u l=500000u
X2 a_919_n500# a_819_n588# a_761_n500# a_n1743_n722# sky130_fd_pr__nfet_g5v0d10v5 ad=1.45e+12p pd=1.058e+07u as=1.45e+12p ps=1.058e+07u w=5e+06u l=500000u
X3 a_n187_n500# a_n287_n588# a_n345_n500# a_n1743_n722# sky130_fd_pr__nfet_g5v0d10v5 ad=1.45e+12p pd=1.058e+07u as=1.45e+12p ps=1.058e+07u w=5e+06u l=500000u
X4 a_761_n500# a_661_n588# a_603_n500# a_n1743_n722# sky130_fd_pr__nfet_g5v0d10v5 ad=0p pd=0u as=1.45e+12p ps=1.058e+07u w=5e+06u l=500000u
X5 a_287_n500# a_187_n588# a_129_n500# a_n1743_n722# sky130_fd_pr__nfet_g5v0d10v5 ad=1.45e+12p pd=1.058e+07u as=1.45e+12p ps=1.058e+07u w=5e+06u l=500000u
X6 a_n1293_n500# a_n1393_n588# a_n1451_n500# a_n1743_n722# sky130_fd_pr__nfet_g5v0d10v5 ad=1.45e+12p pd=1.058e+07u as=1.45e+12p ps=1.058e+07u w=5e+06u l=500000u
X7 a_1393_n500# a_1293_n588# a_1235_n500# a_n1743_n722# sky130_fd_pr__nfet_g5v0d10v5 ad=1.45e+12p pd=1.058e+07u as=1.45e+12p ps=1.058e+07u w=5e+06u l=500000u
X8 a_n345_n500# a_n445_n588# a_n503_n500# a_n1743_n722# sky130_fd_pr__nfet_g5v0d10v5 ad=0p pd=0u as=1.45e+12p ps=1.058e+07u w=5e+06u l=500000u
X9 a_129_n500# a_29_n588# a_n29_n500# a_n1743_n722# sky130_fd_pr__nfet_g5v0d10v5 ad=0p pd=0u as=1.45e+12p ps=1.058e+07u w=5e+06u l=500000u
X10 a_445_n500# a_345_n588# a_287_n500# a_n1743_n722# sky130_fd_pr__nfet_g5v0d10v5 ad=1.45e+12p pd=1.058e+07u as=0p ps=0u w=5e+06u l=500000u
X11 a_n1451_n500# a_n1551_n588# a_n1609_n500# a_n1743_n722# sky130_fd_pr__nfet_g5v0d10v5 ad=0p pd=0u as=1.45e+12p ps=1.058e+07u w=5e+06u l=500000u
X12 a_1551_n500# a_1451_n588# a_1393_n500# a_n1743_n722# sky130_fd_pr__nfet_g5v0d10v5 ad=1.45e+12p pd=1.058e+07u as=0p ps=0u w=5e+06u l=500000u
X13 a_n977_n500# a_n1077_n588# a_n1135_n500# a_n1743_n722# sky130_fd_pr__nfet_g5v0d10v5 ad=0p pd=0u as=1.45e+12p ps=1.058e+07u w=5e+06u l=500000u
X14 a_n503_n500# a_n603_n588# a_n661_n500# a_n1743_n722# sky130_fd_pr__nfet_g5v0d10v5 ad=0p pd=0u as=0p ps=0u w=5e+06u l=500000u
X15 a_1077_n500# a_977_n588# a_919_n500# a_n1743_n722# sky130_fd_pr__nfet_g5v0d10v5 ad=1.45e+12p pd=1.058e+07u as=0p ps=0u w=5e+06u l=500000u
X16 a_n29_n500# a_n129_n588# a_n187_n500# a_n1743_n722# sky130_fd_pr__nfet_g5v0d10v5 ad=0p pd=0u as=0p ps=0u w=5e+06u l=500000u
X17 a_603_n500# a_503_n588# a_445_n500# a_n1743_n722# sky130_fd_pr__nfet_g5v0d10v5 ad=0p pd=0u as=0p ps=0u w=5e+06u l=500000u
X18 a_n1135_n500# a_n1235_n588# a_n1293_n500# a_n1743_n722# sky130_fd_pr__nfet_g5v0d10v5 ad=0p pd=0u as=0p ps=0u w=5e+06u l=500000u
X19 a_1235_n500# a_1135_n588# a_1077_n500# a_n1743_n722# sky130_fd_pr__nfet_g5v0d10v5 ad=0p pd=0u as=0p ps=0u w=5e+06u l=500000u
C0 a_n129_n588# a_1293_n588# 0.01fF
C1 a_29_n588# a_n919_n588# 0.01fF
C2 a_n129_n588# a_1135_n588# 0.01fF
C3 a_n287_n588# a_1293_n588# 0.01fF
C4 a_445_n500# a_1551_n500# 0.06fF
C5 a_n1451_n500# a_n977_n500# 0.15fF
C6 a_n1551_n588# a_n129_n588# 0.01fF
C7 a_n287_n588# a_1135_n588# 0.01fF
C8 a_n503_n500# a_n1451_n500# 0.07fF
C9 a_n187_n500# a_603_n500# 0.09fF
C10 a_603_n500# a_1235_n500# 0.11fF
C11 a_n1551_n588# a_n287_n588# 0.01fF
C12 a_n1235_n588# a_n919_n588# 0.04fF
C13 a_n29_n500# a_919_n500# 0.07fF
C14 a_129_n500# a_761_n500# 0.11fF
C15 a_n29_n500# a_n1135_n500# 0.06fF
C16 a_n187_n500# a_n977_n500# 0.09fF
C17 a_919_n500# a_1393_n500# 0.15fF
C18 a_n503_n500# a_n187_n500# 0.24fF
C19 a_n661_n500# a_n29_n500# 0.11fF
C20 a_n345_n500# a_1077_n500# 0.05fF
C21 a_n187_n500# a_n1451_n500# 0.05fF
C22 a_603_n500# a_1551_n500# 0.07fF
C23 a_n1551_n588# a_n919_n588# 0.02fF
C24 a_n345_n500# a_n29_n500# 0.24fF
C25 a_n187_n500# a_1235_n500# 0.05fF
C26 a_287_n500# a_761_n500# 0.15fF
C27 a_129_n500# a_919_n500# 0.09fF
C28 a_n29_n500# a_1077_n500# 0.06fF
C29 a_129_n500# a_n1135_n500# 0.05fF
C30 a_1077_n500# a_1393_n500# 0.24fF
C31 a_n761_n588# a_819_n588# 0.01fF
C32 a_n661_n500# a_129_n500# 0.09fF
C33 a_n761_n588# a_661_n588# 0.01fF
C34 a_n761_n588# a_503_n588# 0.01fF
C35 a_819_n588# a_977_n588# 0.12fF
C36 a_n445_n588# a_n1077_n588# 0.02fF
C37 a_n761_n588# a_n129_n588# 0.02fF
C38 a_661_n588# a_977_n588# 0.04fF
C39 a_n603_n588# a_n1077_n588# 0.02fF
C40 a_n29_n500# a_1393_n500# 0.05fF
C41 a_n761_n588# a_n287_n588# 0.02fF
C42 a_1235_n500# a_1551_n500# 0.24fF
C43 a_661_n588# a_819_n588# 0.12fF
C44 a_503_n588# a_977_n588# 0.02fF
C45 a_n345_n500# a_129_n500# 0.15fF
C46 a_503_n588# a_819_n588# 0.04fF
C47 a_445_n500# a_761_n500# 0.24fF
C48 a_129_n500# a_1077_n500# 0.07fF
C49 a_287_n500# a_919_n500# 0.11fF
C50 a_287_n500# a_n1135_n500# 0.05fF
C51 a_n1393_n588# a_n1077_n588# 0.04fF
C52 a_n129_n588# a_977_n588# 0.01fF
C53 a_503_n588# a_661_n588# 0.12fF
C54 a_n661_n500# a_287_n500# 0.07fF
C55 a_345_n588# a_n1077_n588# 0.01fF
C56 a_n129_n588# a_819_n588# 0.01fF
C57 a_n287_n588# a_977_n588# 0.01fF
C58 a_187_n588# a_n1077_n588# 0.01fF
C59 a_n1135_n500# a_n1609_n500# 0.15fF
C60 a_n287_n588# a_819_n588# 0.01fF
C61 a_n129_n588# a_661_n588# 0.01fF
C62 a_29_n588# a_n1077_n588# 0.01fF
C63 a_n819_n500# a_761_n500# 0.04fF
C64 a_n661_n500# a_n1609_n500# 0.07fF
C65 a_n287_n588# a_661_n588# 0.01fF
C66 a_n129_n588# a_503_n588# 0.02fF
C67 a_n761_n588# a_n919_n588# 0.12fF
C68 a_n29_n500# a_129_n500# 0.56fF
C69 a_n287_n588# a_503_n588# 0.01fF
C70 a_129_n500# a_1393_n500# 0.05fF
C71 a_n345_n500# a_287_n500# 0.11fF
C72 a_n1235_n588# a_n1077_n588# 0.12fF
C73 a_445_n500# a_919_n500# 0.15fF
C74 a_287_n500# a_1077_n500# 0.09fF
C75 a_603_n500# a_761_n500# 0.56fF
C76 a_445_n500# a_n1135_n500# 0.04fF
C77 a_n287_n588# a_n129_n588# 0.12fF
C78 a_n661_n500# a_445_n500# 0.06fF
C79 a_n603_n588# a_n445_n588# 0.12fF
C80 a_n503_n500# a_761_n500# 0.05fF
C81 a_n345_n500# a_n1609_n500# 0.05fF
C82 a_n1293_n500# a_n1135_n500# 0.56fF
C83 a_661_n588# a_n919_n588# 0.01fF
C84 a_n1393_n588# a_n445_n588# 0.01fF
C85 a_n661_n500# a_n1293_n500# 0.11fF
C86 a_n819_n500# a_n1135_n500# 0.24fF
C87 a_503_n588# a_n919_n588# 0.01fF
C88 a_n445_n588# a_345_n588# 0.01fF
C89 a_n1393_n588# a_n603_n588# 0.01fF
C90 a_n29_n500# a_287_n500# 0.24fF
C91 a_n819_n500# a_n661_n500# 0.56fF
C92 a_287_n500# a_1393_n500# 0.06fF
C93 a_n445_n588# a_187_n588# 0.02fF
C94 a_n603_n588# a_345_n588# 0.01fF
C95 a_n1551_n588# a_n1077_n588# 0.02fF
C96 a_n129_n588# a_n919_n588# 0.01fF
C97 a_n345_n500# a_445_n500# 0.09fF
C98 a_603_n500# a_919_n500# 0.24fF
C99 a_445_n500# a_1077_n500# 0.11fF
C100 a_n603_n588# a_187_n588# 0.01fF
C101 a_n445_n588# a_29_n588# 0.02fF
C102 a_n187_n500# a_761_n500# 0.07fF
C103 a_n29_n500# a_n1609_n500# 0.04fF
C104 a_n287_n588# a_n919_n588# 0.02fF
C105 a_761_n500# a_1235_n500# 0.15fF
C106 a_n1135_n500# a_n977_n500# 0.56fF
C107 a_n603_n588# a_29_n588# 0.02fF
C108 a_n661_n500# a_603_n500# 0.05fF
C109 a_n1393_n588# a_187_n588# 0.01fF
C110 a_n503_n500# a_919_n500# 0.05fF
C111 a_n503_n500# a_n1135_n500# 0.11fF
C112 a_n345_n500# a_n1293_n500# 0.07fF
C113 a_n661_n500# a_n977_n500# 0.24fF
C114 a_187_n588# a_345_n588# 0.12fF
C115 a_n1393_n588# a_29_n588# 0.01fF
C116 a_n445_n588# a_n1235_n588# 0.01fF
C117 a_n819_n500# a_n345_n500# 0.15fF
C118 a_n661_n500# a_n503_n500# 0.56fF
C119 a_29_n588# a_345_n588# 0.04fF
C120 a_n603_n588# a_n1235_n588# 0.02fF
C121 a_n29_n500# a_445_n500# 0.15fF
C122 a_129_n500# a_287_n500# 0.56fF
C123 a_29_n588# a_187_n588# 0.12fF
C124 a_445_n500# a_1393_n500# 0.07fF
C125 a_n1451_n500# a_n1135_n500# 0.24fF
C126 a_761_n500# a_1551_n500# 0.09fF
C127 a_n1393_n588# a_n1235_n588# 0.12fF
C128 a_n661_n500# a_n1451_n500# 0.09fF
C129 a_n345_n500# a_603_n500# 0.07fF
C130 a_603_n500# a_1077_n500# 0.15fF
C131 a_n187_n500# a_919_n500# 0.06fF
C132 a_n1235_n588# a_345_n588# 0.01fF
C133 a_n29_n500# a_n1293_n500# 0.05fF
C134 a_n345_n500# a_n977_n500# 0.11fF
C135 a_n187_n500# a_n1135_n500# 0.07fF
C136 a_919_n500# a_1235_n500# 0.24fF
C137 a_n1235_n588# a_187_n588# 0.01fF
C138 a_n445_n588# a_1135_n588# 0.01fF
C139 a_n819_n500# a_n29_n500# 0.09fF
C140 a_n503_n500# a_n345_n500# 0.56fF
C141 a_n661_n500# a_n187_n500# 0.15fF
C142 a_n503_n500# a_1077_n500# 0.04fF
C143 a_n1235_n588# a_29_n588# 0.01fF
C144 a_n1551_n588# a_n445_n588# 0.01fF
C145 a_1451_n588# a_345_n588# 0.01fF
C146 a_n1551_n588# a_n603_n588# 0.01fF
C147 a_1451_n588# a_187_n588# 0.01fF
C148 a_1293_n588# a_345_n588# 0.01fF
C149 a_n345_n500# a_n1451_n500# 0.06fF
C150 a_n761_n588# a_n1077_n588# 0.04fF
C151 a_n29_n500# a_603_n500# 0.11fF
C152 a_129_n500# a_445_n500# 0.24fF
C153 a_603_n500# a_1393_n500# 0.09fF
C154 a_1451_n588# a_29_n588# 0.01fF
C155 a_n1551_n588# a_n1393_n588# 0.12fF
C156 a_1135_n588# a_345_n588# 0.01fF
C157 a_1293_n588# a_187_n588# 0.01fF
C158 a_n29_n500# a_n977_n500# 0.07fF
C159 a_919_n500# a_1551_n500# 0.11fF
C160 a_1293_n588# a_29_n588# 0.01fF
C161 a_1135_n588# a_187_n588# 0.01fF
C162 a_n345_n500# a_n187_n500# 0.56fF
C163 a_n503_n500# a_n29_n500# 0.15fF
C164 a_n187_n500# a_1077_n500# 0.05fF
C165 a_n345_n500# a_1235_n500# 0.04fF
C166 a_129_n500# a_n1293_n500# 0.05fF
C167 a_1077_n500# a_1235_n500# 0.56fF
C168 a_1135_n588# a_29_n588# 0.01fF
C169 a_n819_n500# a_129_n500# 0.07fF
C170 a_n1551_n588# a_29_n588# 0.01fF
C171 a_n29_n500# a_n1451_n500# 0.05fF
C172 a_503_n588# a_n1077_n588# 0.01fF
C173 a_287_n500# a_445_n500# 0.56fF
C174 a_129_n500# a_603_n500# 0.15fF
C175 a_n1551_n588# a_n1235_n588# 0.04fF
C176 a_n187_n500# a_n29_n500# 0.56fF
C177 a_n187_n500# a_1393_n500# 0.04fF
C178 a_n29_n500# a_1235_n500# 0.05fF
C179 a_129_n500# a_n977_n500# 0.06fF
C180 a_1235_n500# a_1393_n500# 0.56fF
C181 a_1077_n500# a_1551_n500# 0.15fF
C182 a_1293_n588# a_1451_n588# 0.12fF
C183 a_n129_n588# a_n1077_n588# 0.01fF
C184 a_n503_n500# a_129_n500# 0.11fF
C185 a_1135_n588# a_1451_n588# 0.04fF
C186 a_287_n500# a_n1293_n500# 0.04fF
C187 a_n287_n588# a_n1077_n588# 0.01fF
C188 a_1135_n588# a_1293_n588# 0.12fF
C189 a_n445_n588# a_n761_n588# 0.04fF
C190 a_n819_n500# a_287_n500# 0.06fF
C191 a_n603_n588# a_n761_n588# 0.12fF
C192 a_n1293_n500# a_n1609_n500# 0.24fF
C193 a_129_n500# a_n1451_n500# 0.04fF
C194 a_n29_n500# a_1551_n500# 0.04fF
C195 a_n819_n500# a_n1609_n500# 0.09fF
C196 a_1393_n500# a_1551_n500# 0.56fF
C197 a_n1393_n588# a_n761_n588# 0.02fF
C198 a_n445_n588# a_977_n588# 0.01fF
C199 a_287_n500# a_603_n500# 0.24fF
C200 a_n187_n500# a_129_n500# 0.24fF
C201 a_n761_n588# a_345_n588# 0.01fF
C202 a_129_n500# a_1235_n500# 0.06fF
C203 a_n603_n588# a_977_n588# 0.01fF
C204 a_287_n500# a_n977_n500# 0.05fF
C205 a_n445_n588# a_819_n588# 0.01fF
C206 a_n761_n588# a_187_n588# 0.01fF
C207 a_n445_n588# a_661_n588# 0.01fF
C208 a_n603_n588# a_819_n588# 0.01fF
C209 a_n1077_n588# a_n919_n588# 0.12fF
C210 a_n503_n500# a_287_n500# 0.09fF
C211 a_n761_n588# a_29_n588# 0.01fF
C212 a_n445_n588# a_503_n588# 0.01fF
C213 a_n603_n588# a_661_n588# 0.01fF
C214 a_761_n500# a_919_n500# 0.56fF
C215 a_n977_n500# a_n1609_n500# 0.11fF
C216 a_n819_n500# a_445_n500# 0.05fF
C217 a_345_n588# a_977_n588# 0.02fF
C218 a_n603_n588# a_503_n588# 0.01fF
C219 a_n661_n500# a_761_n500# 0.05fF
C220 a_n503_n500# a_n1609_n500# 0.06fF
C221 a_345_n588# a_819_n588# 0.02fF
C222 a_187_n588# a_977_n588# 0.01fF
C223 a_n445_n588# a_n129_n588# 0.04fF
C224 a_345_n588# a_661_n588# 0.04fF
C225 a_29_n588# a_977_n588# 0.01fF
C226 a_187_n588# a_819_n588# 0.02fF
C227 a_129_n500# a_1551_n500# 0.05fF
C228 a_n603_n588# a_n129_n588# 0.02fF
C229 a_n445_n588# a_n287_n588# 0.12fF
C230 a_n1235_n588# a_n761_n588# 0.02fF
C231 a_n819_n500# a_n1293_n500# 0.15fF
C232 a_445_n500# a_603_n500# 0.56fF
C233 a_187_n588# a_661_n588# 0.02fF
C234 a_29_n588# a_819_n588# 0.01fF
C235 a_345_n588# a_503_n588# 0.12fF
C236 a_n603_n588# a_n287_n588# 0.04fF
C237 a_n187_n500# a_287_n500# 0.15fF
C238 a_287_n500# a_1235_n500# 0.07fF
C239 a_n1451_n500# a_n1609_n500# 0.56fF
C240 a_445_n500# a_n977_n500# 0.05fF
C241 a_n1393_n588# a_n129_n588# 0.01fF
C242 a_29_n588# a_661_n588# 0.02fF
C243 a_187_n588# a_503_n588# 0.04fF
C244 a_n503_n500# a_445_n500# 0.07fF
C245 a_n1393_n588# a_n287_n588# 0.01fF
C246 a_n129_n588# a_345_n588# 0.02fF
C247 a_29_n588# a_503_n588# 0.02fF
C248 a_n345_n500# a_761_n500# 0.06fF
C249 a_n187_n500# a_n1609_n500# 0.05fF
C250 a_n287_n588# a_345_n588# 0.02fF
C251 a_761_n500# a_1077_n500# 0.24fF
C252 a_n129_n588# a_187_n588# 0.04fF
C253 a_n1293_n500# a_n977_n500# 0.24fF
C254 a_n819_n500# a_603_n500# 0.05fF
C255 a_n129_n588# a_29_n588# 0.12fF
C256 a_n287_n588# a_187_n588# 0.02fF
C257 a_n661_n500# a_919_n500# 0.04fF
C258 a_n819_n500# a_n977_n500# 0.56fF
C259 a_n661_n500# a_n1135_n500# 0.15fF
C260 a_n503_n500# a_n1293_n500# 0.09fF
C261 a_n287_n588# a_29_n588# 0.04fF
C262 a_n1551_n588# a_n761_n588# 0.01fF
C263 a_1451_n588# a_977_n588# 0.02fF
C264 a_n445_n588# a_n919_n588# 0.02fF
C265 a_n819_n500# a_n503_n500# 0.24fF
C266 a_287_n500# a_1551_n500# 0.05fF
C267 a_1293_n588# a_977_n588# 0.04fF
C268 a_1451_n588# a_819_n588# 0.02fF
C269 a_n603_n588# a_n919_n588# 0.04fF
C270 a_n187_n500# a_445_n500# 0.11fF
C271 a_1293_n588# a_819_n588# 0.02fF
C272 a_1135_n588# a_977_n588# 0.12fF
C273 a_1451_n588# a_661_n588# 0.01fF
C274 a_n1235_n588# a_n129_n588# 0.01fF
C275 a_445_n500# a_1235_n500# 0.09fF
C276 a_n1451_n500# a_n1293_n500# 0.56fF
C277 a_603_n500# a_n977_n500# 0.04fF
C278 a_n29_n500# a_761_n500# 0.09fF
C279 a_n1393_n588# a_n919_n588# 0.02fF
C280 a_761_n500# a_1393_n500# 0.11fF
C281 a_1451_n588# a_503_n588# 0.01fF
C282 a_1135_n588# a_819_n588# 0.04fF
C283 a_1293_n588# a_661_n588# 0.02fF
C284 a_n1235_n588# a_n287_n588# 0.01fF
C285 a_n819_n500# a_n1451_n500# 0.11fF
C286 a_n503_n500# a_603_n500# 0.06fF
C287 a_345_n588# a_n919_n588# 0.01fF
C288 a_1135_n588# a_661_n588# 0.02fF
C289 a_1293_n588# a_503_n588# 0.01fF
C290 a_n345_n500# a_919_n500# 0.05fF
C291 a_n345_n500# a_n1135_n500# 0.09fF
C292 a_n187_n500# a_n1293_n500# 0.06fF
C293 a_n503_n500# a_n977_n500# 0.15fF
C294 a_919_n500# a_1077_n500# 0.56fF
C295 a_187_n588# a_n919_n588# 0.01fF
C296 a_n129_n588# a_1451_n588# 0.01fF
C297 a_1135_n588# a_503_n588# 0.02fF
C298 a_n661_n500# a_n345_n500# 0.24fF
C299 a_n819_n500# a_n187_n500# 0.11fF
C300 a_1551_n500# a_n1743_n722# 0.30fF
C301 a_1393_n500# a_n1743_n722# 0.13fF
C302 a_1235_n500# a_n1743_n722# 0.09fF
C303 a_1077_n500# a_n1743_n722# 0.07fF
C304 a_919_n500# a_n1743_n722# 0.06fF
C305 a_761_n500# a_n1743_n722# 0.05fF
C306 a_603_n500# a_n1743_n722# 0.05fF
C307 a_445_n500# a_n1743_n722# 0.04fF
C308 a_287_n500# a_n1743_n722# 0.04fF
C309 a_129_n500# a_n1743_n722# 0.04fF
C310 a_n29_n500# a_n1743_n722# 0.02fF
C311 a_n187_n500# a_n1743_n722# 0.04fF
C312 a_n345_n500# a_n1743_n722# 0.04fF
C313 a_n503_n500# a_n1743_n722# 0.04fF
C314 a_n661_n500# a_n1743_n722# 0.05fF
C315 a_n819_n500# a_n1743_n722# 0.05fF
C316 a_n977_n500# a_n1743_n722# 0.06fF
C317 a_n1135_n500# a_n1743_n722# 0.07fF
C318 a_n1293_n500# a_n1743_n722# 0.09fF
C319 a_n1451_n500# a_n1743_n722# 0.13fF
C320 a_n1609_n500# a_n1743_n722# 0.30fF
C321 a_1451_n588# a_n1743_n722# 0.28fF
C322 a_1293_n588# a_n1743_n722# 0.23fF
C323 a_1135_n588# a_n1743_n722# 0.24fF
C324 a_977_n588# a_n1743_n722# 0.25fF
C325 a_819_n588# a_n1743_n722# 0.26fF
C326 a_661_n588# a_n1743_n722# 0.26fF
C327 a_503_n588# a_n1743_n722# 0.27fF
C328 a_345_n588# a_n1743_n722# 0.28fF
C329 a_187_n588# a_n1743_n722# 0.28fF
C330 a_29_n588# a_n1743_n722# 0.28fF
C331 a_n129_n588# a_n1743_n722# 0.28fF
C332 a_n287_n588# a_n1743_n722# 0.28fF
C333 a_n445_n588# a_n1743_n722# 0.28fF
C334 a_n603_n588# a_n1743_n722# 0.28fF
C335 a_n761_n588# a_n1743_n722# 0.28fF
C336 a_n919_n588# a_n1743_n722# 0.28fF
C337 a_n1077_n588# a_n1743_n722# 0.28fF
C338 a_n1235_n588# a_n1743_n722# 0.29fF
C339 a_n1393_n588# a_n1743_n722# 0.29fF
C340 a_n1551_n588# a_n1743_n722# 0.34fF
.ends

.subckt sky130_fd_pr__pfet_g5v0d10v5_CADZ46 a_n345_n500# a_n1609_n500# a_n1135_n500#
+ a_29_n597# a_n977_n500# a_n129_n597# a_187_n597# a_n503_n500# a_129_n500# a_n1293_n500#
+ a_n287_n597# a_819_n597# a_n1077_n597# a_287_n500# a_n661_n500# a_345_n597# a_n919_n597#
+ a_n1451_n500# a_977_n597# a_n445_n597# a_919_n500# a_n1235_n597# a_445_n500# a_503_n597#
+ w_n1809_n797# a_n603_n597# a_1077_n500# a_1135_n597# a_661_n597# a_n1393_n597# a_603_n500#
+ a_1293_n597# a_n761_n597# a_1235_n500# a_n1551_n597# a_761_n500# a_n29_n500# a_1451_n597#
+ a_1393_n500# a_n187_n500# a_1551_n500# a_n819_n500# VSUBS
X0 a_n819_n500# a_n919_n597# a_n977_n500# w_n1809_n797# sky130_fd_pr__pfet_g5v0d10v5 ad=1.45e+12p pd=1.058e+07u as=1.45e+12p ps=1.058e+07u w=5e+06u l=500000u
X1 a_n661_n500# a_n761_n597# a_n819_n500# w_n1809_n797# sky130_fd_pr__pfet_g5v0d10v5 ad=1.45e+12p pd=1.058e+07u as=0p ps=0u w=5e+06u l=500000u
X2 a_919_n500# a_819_n597# a_761_n500# w_n1809_n797# sky130_fd_pr__pfet_g5v0d10v5 ad=1.45e+12p pd=1.058e+07u as=1.45e+12p ps=1.058e+07u w=5e+06u l=500000u
X3 a_n187_n500# a_n287_n597# a_n345_n500# w_n1809_n797# sky130_fd_pr__pfet_g5v0d10v5 ad=1.45e+12p pd=1.058e+07u as=1.45e+12p ps=1.058e+07u w=5e+06u l=500000u
X4 a_761_n500# a_661_n597# a_603_n500# w_n1809_n797# sky130_fd_pr__pfet_g5v0d10v5 ad=0p pd=0u as=1.45e+12p ps=1.058e+07u w=5e+06u l=500000u
X5 a_287_n500# a_187_n597# a_129_n500# w_n1809_n797# sky130_fd_pr__pfet_g5v0d10v5 ad=1.45e+12p pd=1.058e+07u as=1.45e+12p ps=1.058e+07u w=5e+06u l=500000u
X6 a_n1293_n500# a_n1393_n597# a_n1451_n500# w_n1809_n797# sky130_fd_pr__pfet_g5v0d10v5 ad=1.45e+12p pd=1.058e+07u as=1.45e+12p ps=1.058e+07u w=5e+06u l=500000u
X7 a_1393_n500# a_1293_n597# a_1235_n500# w_n1809_n797# sky130_fd_pr__pfet_g5v0d10v5 ad=1.45e+12p pd=1.058e+07u as=1.45e+12p ps=1.058e+07u w=5e+06u l=500000u
X8 a_n345_n500# a_n445_n597# a_n503_n500# w_n1809_n797# sky130_fd_pr__pfet_g5v0d10v5 ad=0p pd=0u as=1.45e+12p ps=1.058e+07u w=5e+06u l=500000u
X9 a_129_n500# a_29_n597# a_n29_n500# w_n1809_n797# sky130_fd_pr__pfet_g5v0d10v5 ad=0p pd=0u as=1.45e+12p ps=1.058e+07u w=5e+06u l=500000u
X10 a_445_n500# a_345_n597# a_287_n500# w_n1809_n797# sky130_fd_pr__pfet_g5v0d10v5 ad=1.45e+12p pd=1.058e+07u as=0p ps=0u w=5e+06u l=500000u
X11 a_n1451_n500# a_n1551_n597# a_n1609_n500# w_n1809_n797# sky130_fd_pr__pfet_g5v0d10v5 ad=0p pd=0u as=1.45e+12p ps=1.058e+07u w=5e+06u l=500000u
X12 a_1551_n500# a_1451_n597# a_1393_n500# w_n1809_n797# sky130_fd_pr__pfet_g5v0d10v5 ad=1.45e+12p pd=1.058e+07u as=0p ps=0u w=5e+06u l=500000u
X13 a_n977_n500# a_n1077_n597# a_n1135_n500# w_n1809_n797# sky130_fd_pr__pfet_g5v0d10v5 ad=0p pd=0u as=1.45e+12p ps=1.058e+07u w=5e+06u l=500000u
X14 a_1077_n500# a_977_n597# a_919_n500# w_n1809_n797# sky130_fd_pr__pfet_g5v0d10v5 ad=1.45e+12p pd=1.058e+07u as=0p ps=0u w=5e+06u l=500000u
X15 a_n503_n500# a_n603_n597# a_n661_n500# w_n1809_n797# sky130_fd_pr__pfet_g5v0d10v5 ad=0p pd=0u as=0p ps=0u w=5e+06u l=500000u
X16 a_n29_n500# a_n129_n597# a_n187_n500# w_n1809_n797# sky130_fd_pr__pfet_g5v0d10v5 ad=0p pd=0u as=0p ps=0u w=5e+06u l=500000u
X17 a_603_n500# a_503_n597# a_445_n500# w_n1809_n797# sky130_fd_pr__pfet_g5v0d10v5 ad=0p pd=0u as=0p ps=0u w=5e+06u l=500000u
X18 a_n1135_n500# a_n1235_n597# a_n1293_n500# w_n1809_n797# sky130_fd_pr__pfet_g5v0d10v5 ad=0p pd=0u as=0p ps=0u w=5e+06u l=500000u
X19 a_1235_n500# a_1135_n597# a_1077_n500# w_n1809_n797# sky130_fd_pr__pfet_g5v0d10v5 ad=0p pd=0u as=0p ps=0u w=5e+06u l=500000u
C0 a_1077_n500# a_1235_n500# 0.56fF
C1 a_n29_n500# a_1393_n500# 0.05fF
C2 a_n661_n500# a_n1451_n500# 0.09fF
C3 a_345_n597# a_1135_n597# 0.01fF
C4 a_345_n597# a_n445_n597# 0.01fF
C5 a_1451_n597# a_29_n597# 0.01fF
C6 a_603_n500# a_761_n500# 0.56fF
C7 a_n503_n500# a_1077_n500# 0.04fF
C8 a_n1077_n597# a_n445_n597# 0.02fF
C9 a_1451_n597# a_345_n597# 0.01fF
C10 a_n1551_n597# a_n129_n597# 0.01fF
C11 a_n1135_n500# a_129_n500# 0.05fF
C12 a_n661_n500# a_n503_n500# 0.56fF
C13 a_977_n597# a_n287_n597# 0.01fF
C14 a_n603_n597# a_503_n597# 0.01fF
C15 a_n1393_n597# a_n761_n597# 0.02fF
C16 w_n1809_n797# a_n345_n500# 0.04fF
C17 a_n1393_n597# a_n919_n597# 0.02fF
C18 a_129_n500# a_n29_n500# 0.56fF
C19 a_661_n597# a_819_n597# 0.12fF
C20 a_819_n597# a_n129_n597# 0.01fF
C21 a_1235_n500# a_1393_n500# 0.56fF
C22 a_n761_n597# a_n445_n597# 0.04fF
C23 a_661_n597# a_29_n597# 0.02fF
C24 a_n1393_n597# a_n1235_n597# 0.12fF
C25 a_n445_n597# a_n919_n597# 0.02fF
C26 a_29_n597# a_n129_n597# 0.12fF
C27 a_n1293_n500# a_n819_n500# 0.15fF
C28 a_287_n500# a_n345_n500# 0.11fF
C29 a_1077_n500# a_1551_n500# 0.15fF
C30 a_n819_n500# a_445_n500# 0.05fF
C31 a_345_n597# a_661_n597# 0.04fF
C32 a_n1135_n500# w_n1809_n797# 0.07fF
C33 a_345_n597# a_n129_n597# 0.02fF
C34 a_603_n500# a_919_n500# 0.24fF
C35 a_n1235_n597# a_n445_n597# 0.01fF
C36 a_n1077_n597# a_n129_n597# 0.01fF
C37 a_129_n500# a_n1451_n500# 0.04fF
C38 a_n187_n500# a_603_n500# 0.09fF
C39 a_n1135_n500# a_287_n500# 0.05fF
C40 w_n1809_n797# a_n29_n500# 0.02fF
C41 a_n1393_n597# a_187_n597# 0.01fF
C42 a_129_n500# a_1235_n500# 0.06fF
C43 a_n1393_n597# w_n1809_n797# 0.25fF
C44 a_1293_n597# a_819_n597# 0.02fF
C45 a_977_n597# a_n603_n597# 0.01fF
C46 a_819_n597# a_503_n597# 0.04fF
C47 a_n977_n500# a_603_n500# 0.04fF
C48 a_129_n500# a_n503_n500# 0.11fF
C49 a_1293_n597# a_29_n597# 0.01fF
C50 a_1135_n597# a_187_n597# 0.01fF
C51 a_1393_n500# a_1551_n500# 0.56fF
C52 a_29_n597# a_503_n597# 0.02fF
C53 a_287_n500# a_n29_n500# 0.24fF
C54 a_n445_n597# a_187_n597# 0.02fF
C55 w_n1809_n797# a_1135_n597# 0.20fF
C56 w_n1809_n797# a_n445_n597# 0.24fF
C57 a_661_n597# a_n761_n597# 0.01fF
C58 a_345_n597# a_1293_n597# 0.01fF
C59 a_n819_n500# a_n345_n500# 0.15fF
C60 a_661_n597# a_n919_n597# 0.01fF
C61 a_1451_n597# a_187_n597# 0.01fF
C62 a_345_n597# a_503_n597# 0.12fF
C63 a_n761_n597# a_n129_n597# 0.02fF
C64 a_n1293_n500# a_n345_n500# 0.07fF
C65 w_n1809_n797# a_1451_n597# 0.24fF
C66 a_n129_n597# a_n919_n597# 0.01fF
C67 a_445_n500# a_n345_n500# 0.09fF
C68 a_n1077_n597# a_503_n597# 0.01fF
C69 w_n1809_n797# a_n1451_n500# 0.13fF
C70 a_603_n500# a_1077_n500# 0.15fF
C71 a_761_n500# a_919_n500# 0.56fF
C72 a_n187_n500# a_n1609_n500# 0.05fF
C73 a_n1235_n597# a_n129_n597# 0.01fF
C74 w_n1809_n797# a_1235_n500# 0.09fF
C75 a_n661_n500# a_603_n500# 0.05fF
C76 a_n1135_n500# a_n819_n500# 0.24fF
C77 a_n977_n500# a_n1609_n500# 0.11fF
C78 w_n1809_n797# a_n503_n500# 0.04fF
C79 a_129_n500# a_1551_n500# 0.05fF
C80 a_n1293_n500# a_n1135_n500# 0.56fF
C81 a_n187_n500# a_761_n500# 0.07fF
C82 a_n1135_n500# a_445_n500# 0.04fF
C83 a_287_n500# a_1235_n500# 0.07fF
C84 a_977_n597# a_819_n597# 0.12fF
C85 a_n287_n597# a_n603_n597# 0.04fF
C86 a_287_n500# a_n503_n500# 0.09fF
C87 a_n819_n500# a_n29_n500# 0.09fF
C88 a_661_n597# a_187_n597# 0.02fF
C89 a_n761_n597# a_503_n597# 0.01fF
C90 a_977_n597# a_29_n597# 0.01fF
C91 a_n129_n597# a_187_n597# 0.04fF
C92 a_n919_n597# a_503_n597# 0.01fF
C93 a_n1293_n500# a_n29_n500# 0.05fF
C94 w_n1809_n797# a_661_n597# 0.22fF
C95 a_445_n500# a_n29_n500# 0.15fF
C96 w_n1809_n797# a_n129_n597# 0.24fF
C97 a_345_n597# a_977_n597# 0.02fF
C98 a_603_n500# a_1393_n500# 0.09fF
C99 a_n1551_n597# a_n287_n597# 0.01fF
C100 w_n1809_n797# a_1551_n500# 0.30fF
C101 a_n661_n500# a_n1609_n500# 0.07fF
C102 a_761_n500# a_1077_n500# 0.24fF
C103 a_n819_n500# a_n1451_n500# 0.11fF
C104 a_n1293_n500# a_n1451_n500# 0.56fF
C105 a_n661_n500# a_761_n500# 0.05fF
C106 a_n1135_n500# a_n345_n500# 0.09fF
C107 a_287_n500# a_1551_n500# 0.05fF
C108 a_n187_n500# a_919_n500# 0.06fF
C109 a_1293_n597# a_187_n597# 0.01fF
C110 a_503_n597# a_187_n597# 0.04fF
C111 w_n1809_n797# a_1293_n597# 0.19fF
C112 a_445_n500# a_1235_n500# 0.09fF
C113 w_n1809_n797# a_503_n597# 0.23fF
C114 a_n287_n597# a_819_n597# 0.01fF
C115 a_129_n500# a_603_n500# 0.15fF
C116 a_n819_n500# a_n503_n500# 0.24fF
C117 a_n345_n500# a_n29_n500# 0.24fF
C118 a_n1293_n500# a_n503_n500# 0.09fF
C119 a_445_n500# a_n503_n500# 0.07fF
C120 a_n287_n597# a_29_n597# 0.04fF
C121 a_n977_n500# a_n187_n500# 0.09fF
C122 a_345_n597# a_n287_n597# 0.02fF
C123 a_761_n500# a_1393_n500# 0.11fF
C124 a_n1077_n597# a_n287_n597# 0.01fF
C125 a_n1551_n597# a_n603_n597# 0.01fF
C126 a_n1135_n500# a_n29_n500# 0.06fF
C127 a_919_n500# a_1077_n500# 0.56fF
C128 a_n345_n500# a_n1451_n500# 0.06fF
C129 w_n1809_n797# a_603_n500# 0.05fF
C130 a_n661_n500# a_919_n500# 0.04fF
C131 a_445_n500# a_1551_n500# 0.06fF
C132 a_n187_n500# a_1077_n500# 0.05fF
C133 a_n345_n500# a_1235_n500# 0.04fF
C134 a_977_n597# a_187_n597# 0.01fF
C135 w_n1809_n797# a_977_n597# 0.20fF
C136 a_n603_n597# a_819_n597# 0.01fF
C137 a_287_n500# a_603_n500# 0.24fF
C138 a_129_n500# a_761_n500# 0.11fF
C139 a_n661_n500# a_n187_n500# 0.15fF
C140 a_n503_n500# a_n345_n500# 0.56fF
C141 a_n761_n597# a_n287_n597# 0.02fF
C142 a_n287_n597# a_n919_n597# 0.02fF
C143 a_n603_n597# a_29_n597# 0.02fF
C144 a_n1135_n500# a_n1451_n500# 0.24fF
C145 a_n977_n500# a_n661_n500# 0.24fF
C146 a_n1393_n597# a_n445_n597# 0.01fF
C147 a_345_n597# a_n603_n597# 0.01fF
C148 a_n1235_n597# a_n287_n597# 0.01fF
C149 a_919_n500# a_1393_n500# 0.15fF
C150 a_n1077_n597# a_n603_n597# 0.02fF
C151 a_n1135_n500# a_n503_n500# 0.11fF
C152 a_n29_n500# a_n1451_n500# 0.05fF
C153 a_n445_n597# a_1135_n597# 0.01fF
C154 w_n1809_n797# a_n1609_n500# 0.30fF
C155 a_n29_n500# a_1235_n500# 0.05fF
C156 a_n187_n500# a_1393_n500# 0.04fF
C157 a_n1551_n597# a_29_n597# 0.01fF
C158 a_1451_n597# a_1135_n597# 0.04fF
C159 w_n1809_n797# a_761_n500# 0.05fF
C160 a_n503_n500# a_n29_n500# 0.15fF
C161 a_n287_n597# a_187_n597# 0.02fF
C162 w_n1809_n797# a_n287_n597# 0.24fF
C163 a_n819_n500# a_603_n500# 0.05fF
C164 a_n1551_n597# a_n1077_n597# 0.02fF
C165 a_445_n500# a_603_n500# 0.56fF
C166 a_129_n500# a_919_n500# 0.09fF
C167 a_287_n500# a_761_n500# 0.15fF
C168 a_n761_n597# a_n603_n597# 0.12fF
C169 a_n603_n597# a_n919_n597# 0.04fF
C170 a_819_n597# a_29_n597# 0.01fF
C171 a_n1393_n597# a_n129_n597# 0.01fF
C172 a_129_n500# a_n187_n500# 0.24fF
C173 a_345_n597# a_819_n597# 0.02fF
C174 a_n1235_n597# a_n603_n597# 0.02fF
C175 a_1077_n500# a_1393_n500# 0.24fF
C176 a_n503_n500# a_n1451_n500# 0.07fF
C177 a_661_n597# a_1135_n597# 0.02fF
C178 a_661_n597# a_n445_n597# 0.01fF
C179 a_345_n597# a_29_n597# 0.04fF
C180 a_n977_n500# a_129_n500# 0.06fF
C181 a_1135_n597# a_n129_n597# 0.01fF
C182 a_n445_n597# a_n129_n597# 0.04fF
C183 a_n29_n500# a_1551_n500# 0.04fF
C184 a_n1551_n597# a_n761_n597# 0.01fF
C185 a_n1077_n597# a_29_n597# 0.01fF
C186 a_1451_n597# a_661_n597# 0.01fF
C187 a_n1551_n597# a_n919_n597# 0.02fF
C188 a_1451_n597# a_n129_n597# 0.01fF
C189 a_n819_n500# a_n1609_n500# 0.09fF
C190 w_n1809_n797# a_919_n500# 0.06fF
C191 a_n1077_n597# a_345_n597# 0.01fF
C192 a_n1293_n500# a_n1609_n500# 0.24fF
C193 a_n1235_n597# a_n1551_n597# 0.04fF
C194 a_n603_n597# a_187_n597# 0.01fF
C195 w_n1809_n797# a_n603_n597# 0.24fF
C196 a_n345_n500# a_603_n500# 0.07fF
C197 a_n819_n500# a_761_n500# 0.04fF
C198 w_n1809_n797# a_n187_n500# 0.04fF
C199 a_445_n500# a_761_n500# 0.24fF
C200 a_129_n500# a_1077_n500# 0.07fF
C201 a_287_n500# a_919_n500# 0.11fF
C202 a_n761_n597# a_819_n597# 0.01fF
C203 a_n977_n500# w_n1809_n797# 0.06fF
C204 a_129_n500# a_n661_n500# 0.09fF
C205 a_1293_n597# a_1135_n597# 0.12fF
C206 a_n761_n597# a_29_n597# 0.01fF
C207 a_1135_n597# a_503_n597# 0.02fF
C208 a_29_n597# a_n919_n597# 0.01fF
C209 a_287_n500# a_n187_n500# 0.15fF
C210 a_1235_n500# a_1551_n500# 0.24fF
C211 a_n445_n597# a_503_n597# 0.01fF
C212 a_345_n597# a_n761_n597# 0.01fF
C213 a_1451_n597# a_1293_n597# 0.12fF
C214 a_345_n597# a_n919_n597# 0.01fF
C215 a_1451_n597# a_503_n597# 0.01fF
C216 a_661_n597# a_n129_n597# 0.01fF
C217 a_n977_n500# a_287_n500# 0.05fF
C218 a_n1551_n597# w_n1809_n797# 0.30fF
C219 a_n1235_n597# a_29_n597# 0.01fF
C220 a_n1077_n597# a_n761_n597# 0.04fF
C221 a_n1077_n597# a_n919_n597# 0.12fF
C222 a_n1235_n597# a_345_n597# 0.01fF
C223 a_n29_n500# a_603_n500# 0.11fF
C224 a_n345_n500# a_n1609_n500# 0.05fF
C225 w_n1809_n797# a_1077_n500# 0.07fF
C226 a_129_n500# a_1393_n500# 0.05fF
C227 a_n1235_n597# a_n1077_n597# 0.12fF
C228 a_819_n597# a_187_n597# 0.02fF
C229 w_n1809_n797# a_n661_n500# 0.05fF
C230 w_n1809_n797# a_819_n597# 0.21fF
C231 a_n345_n500# a_761_n500# 0.06fF
C232 a_445_n500# a_919_n500# 0.15fF
C233 a_287_n500# a_1077_n500# 0.09fF
C234 a_29_n597# a_187_n597# 0.12fF
C235 w_n1809_n797# a_29_n597# 0.24fF
C236 a_n1135_n500# a_n1609_n500# 0.15fF
C237 a_661_n597# a_1293_n597# 0.02fF
C238 a_n819_n500# a_n187_n500# 0.11fF
C239 a_287_n500# a_n661_n500# 0.07fF
C240 a_1293_n597# a_n129_n597# 0.01fF
C241 a_n761_n597# a_n919_n597# 0.12fF
C242 a_977_n597# a_1135_n597# 0.12fF
C243 a_345_n597# a_187_n597# 0.12fF
C244 a_661_n597# a_503_n597# 0.12fF
C245 a_977_n597# a_n445_n597# 0.01fF
C246 a_n129_n597# a_503_n597# 0.02fF
C247 w_n1809_n797# a_345_n597# 0.23fF
C248 a_n1293_n500# a_n187_n500# 0.06fF
C249 a_445_n500# a_n187_n500# 0.11fF
C250 a_n1077_n597# a_187_n597# 0.01fF
C251 a_n977_n500# a_n819_n500# 0.56fF
C252 a_n1077_n597# w_n1809_n797# 0.24fF
C253 a_1451_n597# a_977_n597# 0.02fF
C254 a_n977_n500# a_n1293_n500# 0.24fF
C255 a_n977_n500# a_445_n500# 0.05fF
C256 a_n1235_n597# a_n761_n597# 0.02fF
C257 a_603_n500# a_1235_n500# 0.11fF
C258 a_n29_n500# a_n1609_n500# 0.04fF
C259 a_n1235_n597# a_n919_n597# 0.04fF
C260 w_n1809_n797# a_1393_n500# 0.13fF
C261 a_n503_n500# a_603_n500# 0.06fF
C262 a_n29_n500# a_761_n500# 0.09fF
C263 a_287_n500# a_1393_n500# 0.06fF
C264 a_n345_n500# a_919_n500# 0.05fF
C265 a_n1393_n597# a_n287_n597# 0.01fF
C266 a_1293_n597# a_503_n597# 0.01fF
C267 a_n761_n597# a_187_n597# 0.01fF
C268 a_n919_n597# a_187_n597# 0.01fF
C269 a_445_n500# a_1077_n500# 0.11fF
C270 w_n1809_n797# a_n761_n597# 0.24fF
C271 w_n1809_n797# a_n919_n597# 0.24fF
C272 a_n1609_n500# a_n1451_n500# 0.56fF
C273 a_n819_n500# a_n661_n500# 0.56fF
C274 w_n1809_n797# a_129_n500# 0.04fF