* NGSPICE file created from analog_top.ext - technology: sky130A

.subckt sky130_fd_pr__nfet_g5v0d10v5_BRTJC6 a_n345_n500# a_1135_n588# a_n603_n588#
+ a_n1393_n588# a_n1609_n500# a_661_n588# a_n1135_n500# a_n977_n500# a_1293_n588#
+ a_n761_n588# a_n503_n500# a_n1551_n588# a_129_n500# a_n1293_n500# a_287_n500# a_n661_n500#
+ a_1451_n588# a_n1451_n500# a_919_n500# a_445_n500# a_1077_n500# a_29_n588# a_n129_n588#
+ a_603_n500# a_187_n588# a_1235_n500# a_n287_n588# a_761_n500# a_819_n588# a_345_n588#
+ a_n1077_n588# a_n29_n500# a_1393_n500# a_n919_n588# a_n1743_n722# a_n187_n500# a_977_n588#
+ a_n445_n588# a_503_n588# a_n1235_n588# a_1551_n500# a_n819_n500#
X0 a_n819_n500# a_n919_n588# a_n977_n500# a_n1743_n722# sky130_fd_pr__nfet_g5v0d10v5 ad=1.45e+12p pd=1.058e+07u as=1.45e+12p ps=1.058e+07u w=5e+06u l=500000u
X1 a_n661_n500# a_n761_n588# a_n819_n500# a_n1743_n722# sky130_fd_pr__nfet_g5v0d10v5 ad=1.45e+12p pd=1.058e+07u as=0p ps=0u w=5e+06u l=500000u
X2 a_919_n500# a_819_n588# a_761_n500# a_n1743_n722# sky130_fd_pr__nfet_g5v0d10v5 ad=1.45e+12p pd=1.058e+07u as=1.45e+12p ps=1.058e+07u w=5e+06u l=500000u
X3 a_n187_n500# a_n287_n588# a_n345_n500# a_n1743_n722# sky130_fd_pr__nfet_g5v0d10v5 ad=1.45e+12p pd=1.058e+07u as=1.45e+12p ps=1.058e+07u w=5e+06u l=500000u
X4 a_761_n500# a_661_n588# a_603_n500# a_n1743_n722# sky130_fd_pr__nfet_g5v0d10v5 ad=0p pd=0u as=1.45e+12p ps=1.058e+07u w=5e+06u l=500000u
X5 a_287_n500# a_187_n588# a_129_n500# a_n1743_n722# sky130_fd_pr__nfet_g5v0d10v5 ad=1.45e+12p pd=1.058e+07u as=1.45e+12p ps=1.058e+07u w=5e+06u l=500000u
X6 a_n1293_n500# a_n1393_n588# a_n1451_n500# a_n1743_n722# sky130_fd_pr__nfet_g5v0d10v5 ad=1.45e+12p pd=1.058e+07u as=1.45e+12p ps=1.058e+07u w=5e+06u l=500000u
X7 a_1393_n500# a_1293_n588# a_1235_n500# a_n1743_n722# sky130_fd_pr__nfet_g5v0d10v5 ad=1.45e+12p pd=1.058e+07u as=1.45e+12p ps=1.058e+07u w=5e+06u l=500000u
X8 a_n345_n500# a_n445_n588# a_n503_n500# a_n1743_n722# sky130_fd_pr__nfet_g5v0d10v5 ad=0p pd=0u as=1.45e+12p ps=1.058e+07u w=5e+06u l=500000u
X9 a_129_n500# a_29_n588# a_n29_n500# a_n1743_n722# sky130_fd_pr__nfet_g5v0d10v5 ad=0p pd=0u as=1.45e+12p ps=1.058e+07u w=5e+06u l=500000u
X10 a_445_n500# a_345_n588# a_287_n500# a_n1743_n722# sky130_fd_pr__nfet_g5v0d10v5 ad=1.45e+12p pd=1.058e+07u as=0p ps=0u w=5e+06u l=500000u
X11 a_n1451_n500# a_n1551_n588# a_n1609_n500# a_n1743_n722# sky130_fd_pr__nfet_g5v0d10v5 ad=0p pd=0u as=1.45e+12p ps=1.058e+07u w=5e+06u l=500000u
X12 a_1551_n500# a_1451_n588# a_1393_n500# a_n1743_n722# sky130_fd_pr__nfet_g5v0d10v5 ad=1.45e+12p pd=1.058e+07u as=0p ps=0u w=5e+06u l=500000u
X13 a_n977_n500# a_n1077_n588# a_n1135_n500# a_n1743_n722# sky130_fd_pr__nfet_g5v0d10v5 ad=0p pd=0u as=1.45e+12p ps=1.058e+07u w=5e+06u l=500000u
X14 a_n503_n500# a_n603_n588# a_n661_n500# a_n1743_n722# sky130_fd_pr__nfet_g5v0d10v5 ad=0p pd=0u as=0p ps=0u w=5e+06u l=500000u
X15 a_1077_n500# a_977_n588# a_919_n500# a_n1743_n722# sky130_fd_pr__nfet_g5v0d10v5 ad=1.45e+12p pd=1.058e+07u as=0p ps=0u w=5e+06u l=500000u
X16 a_n29_n500# a_n129_n588# a_n187_n500# a_n1743_n722# sky130_fd_pr__nfet_g5v0d10v5 ad=0p pd=0u as=0p ps=0u w=5e+06u l=500000u
X17 a_603_n500# a_503_n588# a_445_n500# a_n1743_n722# sky130_fd_pr__nfet_g5v0d10v5 ad=0p pd=0u as=0p ps=0u w=5e+06u l=500000u
X18 a_n1135_n500# a_n1235_n588# a_n1293_n500# a_n1743_n722# sky130_fd_pr__nfet_g5v0d10v5 ad=0p pd=0u as=0p ps=0u w=5e+06u l=500000u
X19 a_1235_n500# a_1135_n588# a_1077_n500# a_n1743_n722# sky130_fd_pr__nfet_g5v0d10v5 ad=0p pd=0u as=0p ps=0u w=5e+06u l=500000u
.ends

.subckt sky130_fd_pr__pfet_g5v0d10v5_CADZ46 a_n345_n500# a_n1609_n500# a_n1135_n500#
+ a_29_n597# a_n977_n500# a_n129_n597# a_187_n597# a_n503_n500# a_129_n500# a_n1293_n500#
+ a_n287_n597# a_819_n597# a_n1077_n597# a_287_n500# a_n661_n500# a_345_n597# a_n919_n597#
+ a_n1451_n500# a_977_n597# a_n445_n597# a_919_n500# a_n1235_n597# a_445_n500# a_503_n597#
+ w_n1809_n797# a_n603_n597# a_1077_n500# a_1135_n597# a_661_n597# a_n1393_n597# a_603_n500#
+ a_1293_n597# a_n761_n597# a_1235_n500# a_n1551_n597# a_761_n500# a_n29_n500# a_1451_n597#
+ a_1393_n500# a_n187_n500# a_1551_n500# a_n819_n500#
X0 a_n819_n500# a_n919_n597# a_n977_n500# w_n1809_n797# sky130_fd_pr__pfet_g5v0d10v5 ad=1.45e+12p pd=1.058e+07u as=1.45e+12p ps=1.058e+07u w=5e+06u l=500000u
X1 a_n661_n500# a_n761_n597# a_n819_n500# w_n1809_n797# sky130_fd_pr__pfet_g5v0d10v5 ad=1.45e+12p pd=1.058e+07u as=0p ps=0u w=5e+06u l=500000u
X2 a_919_n500# a_819_n597# a_761_n500# w_n1809_n797# sky130_fd_pr__pfet_g5v0d10v5 ad=1.45e+12p pd=1.058e+07u as=1.45e+12p ps=1.058e+07u w=5e+06u l=500000u
X3 a_n187_n500# a_n287_n597# a_n345_n500# w_n1809_n797# sky130_fd_pr__pfet_g5v0d10v5 ad=1.45e+12p pd=1.058e+07u as=1.45e+12p ps=1.058e+07u w=5e+06u l=500000u
X4 a_761_n500# a_661_n597# a_603_n500# w_n1809_n797# sky130_fd_pr__pfet_g5v0d10v5 ad=0p pd=0u as=1.45e+12p ps=1.058e+07u w=5e+06u l=500000u
X5 a_287_n500# a_187_n597# a_129_n500# w_n1809_n797# sky130_fd_pr__pfet_g5v0d10v5 ad=1.45e+12p pd=1.058e+07u as=1.45e+12p ps=1.058e+07u w=5e+06u l=500000u
X6 a_n1293_n500# a_n1393_n597# a_n1451_n500# w_n1809_n797# sky130_fd_pr__pfet_g5v0d10v5 ad=1.45e+12p pd=1.058e+07u as=1.45e+12p ps=1.058e+07u w=5e+06u l=500000u
X7 a_1393_n500# a_1293_n597# a_1235_n500# w_n1809_n797# sky130_fd_pr__pfet_g5v0d10v5 ad=1.45e+12p pd=1.058e+07u as=1.45e+12p ps=1.058e+07u w=5e+06u l=500000u
X8 a_n345_n500# a_n445_n597# a_n503_n500# w_n1809_n797# sky130_fd_pr__pfet_g5v0d10v5 ad=0p pd=0u as=1.45e+12p ps=1.058e+07u w=5e+06u l=500000u
X9 a_129_n500# a_29_n597# a_n29_n500# w_n1809_n797# sky130_fd_pr__pfet_g5v0d10v5 ad=0p pd=0u as=1.45e+12p ps=1.058e+07u w=5e+06u l=500000u
X10 a_445_n500# a_345_n597# a_287_n500# w_n1809_n797# sky130_fd_pr__pfet_g5v0d10v5 ad=1.45e+12p pd=1.058e+07u as=0p ps=0u w=5e+06u l=500000u
X11 a_n1451_n500# a_n1551_n597# a_n1609_n500# w_n1809_n797# sky130_fd_pr__pfet_g5v0d10v5 ad=0p pd=0u as=1.45e+12p ps=1.058e+07u w=5e+06u l=500000u
X12 a_1551_n500# a_1451_n597# a_1393_n500# w_n1809_n797# sky130_fd_pr__pfet_g5v0d10v5 ad=1.45e+12p pd=1.058e+07u as=0p ps=0u w=5e+06u l=500000u
X13 a_n977_n500# a_n1077_n597# a_n1135_n500# w_n1809_n797# sky130_fd_pr__pfet_g5v0d10v5 ad=0p pd=0u as=1.45e+12p ps=1.058e+07u w=5e+06u l=500000u
X14 a_1077_n500# a_977_n597# a_919_n500# w_n1809_n797# sky130_fd_pr__pfet_g5v0d10v5 ad=1.45e+12p pd=1.058e+07u as=0p ps=0u w=5e+06u l=500000u
X15 a_n503_n500# a_n603_n597# a_n661_n500# w_n1809_n797# sky130_fd_pr__pfet_g5v0d10v5 ad=0p pd=0u as=0p ps=0u w=5e+06u l=500000u
X16 a_n29_n500# a_n129_n597# a_n187_n500# w_n1809_n797# sky130_fd_pr__pfet_g5v0d10v5 ad=0p pd=0u as=0p ps=0u w=5e+06u l=500000u
X17 a_603_n500# a_503_n597# a_445_n500# w_n1809_n797# sky130_fd_pr__pfet_g5v0d10v5 ad=0p pd=0u as=0p ps=0u w=5e+06u l=500000u
X18 a_n1135_n500# a_n1235_n597# a_n1293_n500# w_n1809_n797# sky130_fd_pr__pfet_g5v0d10v5 ad=0p pd=0u as=0p ps=0u w=5e+06u l=500000u
X19 a_1235_n500# a_1135_n597# a_1077_n500# w_n1809_n797# sky130_fd_pr__pfet_g5v0d10v5 ad=0p pd=0u as=0p ps=0u w=5e+06u l=500000u
.ends

.subckt esd_cell esd VSS VDD
Xsky130_fd_pr__nfet_g5v0d10v5_BRTJC6_0 VSS VSS VSS VSS VSS VSS esd VSS VSS VSS esd
+ VSS esd VSS VSS VSS VSS esd VSS esd esd VSS VSS VSS VSS VSS VSS esd VSS VSS VSS
+ VSS esd VSS VSS esd VSS VSS VSS VSS VSS esd sky130_fd_pr__nfet_g5v0d10v5_BRTJC6
Xsky130_fd_pr__pfet_g5v0d10v5_CADZ46_0 VDD VDD esd VDD VDD VDD VDD esd esd VDD VDD
+ VDD VDD VDD VDD VDD VDD esd VDD VDD VDD VDD esd VDD VDD VDD esd VDD VDD VDD VDD
+ VDD VDD VDD VDD esd VDD VDD esd esd VDD esd sky130_fd_pr__pfet_g5v0d10v5_CADZ46
.ends

.subckt sky130_fd_pr__cap_mim_m3_1_CEWQ64 c1_n260_n210# m3_n360_n310#
X0 c1_n260_n210# m3_n360_n310# sky130_fd_pr__cap_mim_m3_1 l=2.1e+06u w=2.1e+06u
.ends

.subckt sky130_fd_pr__cap_mim_m3_1_CGPBWM m3_n1030_n980# c1_n930_n880#
X0 c1_n930_n880# m3_n1030_n980# sky130_fd_pr__cap_mim_m3_1 l=8.8e+06u w=8.8e+06u
.ends

.subckt sky130_fd_pr__pfet_01v8_UNG2NQ a_n416_n136# a_352_n136# a_n128_n136# a_n224_n136#
+ a_64_n136# a_160_n136# a_n320_n136# w_n646_n356# a_n32_n136# a_n508_n136# a_448_n136#
+ a_n512_n234# a_256_n136#
X0 a_n224_n136# a_n512_n234# a_n320_n136# w_n646_n356# sky130_fd_pr__pfet_01v8 ad=4.488e+11p pd=3.38e+06u as=4.488e+11p ps=3.38e+06u w=1.36e+06u l=150000u
X1 a_352_n136# a_n512_n234# a_256_n136# w_n646_n356# sky130_fd_pr__pfet_01v8 ad=4.488e+11p pd=3.38e+06u as=4.488e+11p ps=3.38e+06u w=1.36e+06u l=150000u
X2 a_n128_n136# a_n512_n234# a_n224_n136# w_n646_n356# sky130_fd_pr__pfet_01v8 ad=4.488e+11p pd=3.38e+06u as=0p ps=0u w=1.36e+06u l=150000u
X3 a_256_n136# a_n512_n234# a_160_n136# w_n646_n356# sky130_fd_pr__pfet_01v8 ad=0p pd=0u as=4.488e+11p ps=3.38e+06u w=1.36e+06u l=150000u
X4 a_n416_n136# a_n512_n234# a_n508_n136# w_n646_n356# sky130_fd_pr__pfet_01v8 ad=4.488e+11p pd=3.38e+06u as=4.216e+11p ps=3.34e+06u w=1.36e+06u l=150000u
X5 a_n320_n136# a_n512_n234# a_n416_n136# w_n646_n356# sky130_fd_pr__pfet_01v8 ad=0p pd=0u as=0p ps=0u w=1.36e+06u l=150000u
X6 a_n32_n136# a_n512_n234# a_n128_n136# w_n646_n356# sky130_fd_pr__pfet_01v8 ad=4.488e+11p pd=3.38e+06u as=0p ps=0u w=1.36e+06u l=150000u
X7 a_448_n136# a_n512_n234# a_352_n136# w_n646_n356# sky130_fd_pr__pfet_01v8 ad=4.216e+11p pd=3.34e+06u as=0p ps=0u w=1.36e+06u l=150000u
X8 a_64_n136# a_n512_n234# a_n32_n136# w_n646_n356# sky130_fd_pr__pfet_01v8 ad=4.488e+11p pd=3.38e+06u as=0p ps=0u w=1.36e+06u l=150000u
X9 a_160_n136# a_n512_n234# a_64_n136# w_n646_n356# sky130_fd_pr__pfet_01v8 ad=0p pd=0u as=0p ps=0u w=1.36e+06u l=150000u
.ends

.subckt sky130_fd_pr__nfet_01v8_6J4AMR a_256_n52# a_n32_n52# a_n224_n52# a_448_n52#
+ a_n416_n52# a_160_n52# a_n610_n226# a_n128_n52# a_n512_n140# a_352_n52# a_n320_n52#
+ a_n508_n52# a_64_n52#
X0 a_n32_n52# a_n512_n140# a_n128_n52# a_n610_n226# sky130_fd_pr__nfet_01v8 ad=1.716e+11p pd=1.7e+06u as=1.716e+11p ps=1.7e+06u w=520000u l=150000u
X1 a_n416_n52# a_n512_n140# a_n508_n52# a_n610_n226# sky130_fd_pr__nfet_01v8 ad=1.716e+11p pd=1.7e+06u as=1.612e+11p ps=1.66e+06u w=520000u l=150000u
X2 a_n224_n52# a_n512_n140# a_n320_n52# a_n610_n226# sky130_fd_pr__nfet_01v8 ad=1.716e+11p pd=1.7e+06u as=1.716e+11p ps=1.7e+06u w=520000u l=150000u
X3 a_n128_n52# a_n512_n140# a_n224_n52# a_n610_n226# sky130_fd_pr__nfet_01v8 ad=0p pd=0u as=0p ps=0u w=520000u l=150000u
X4 a_n320_n52# a_n512_n140# a_n416_n52# a_n610_n226# sky130_fd_pr__nfet_01v8 ad=0p pd=0u as=0p ps=0u w=520000u l=150000u
X5 a_160_n52# a_n512_n140# a_64_n52# a_n610_n226# sky130_fd_pr__nfet_01v8 ad=1.716e+11p pd=1.7e+06u as=1.716e+11p ps=1.7e+06u w=520000u l=150000u
X6 a_352_n52# a_n512_n140# a_256_n52# a_n610_n226# sky130_fd_pr__nfet_01v8 ad=1.716e+11p pd=1.7e+06u as=1.716e+11p ps=1.7e+06u w=520000u l=150000u
X7 a_256_n52# a_n512_n140# a_160_n52# a_n610_n226# sky130_fd_pr__nfet_01v8 ad=0p pd=0u as=0p ps=0u w=520000u l=150000u
X8 a_448_n52# a_n512_n140# a_352_n52# a_n610_n226# sky130_fd_pr__nfet_01v8 ad=1.612e+11p pd=1.66e+06u as=0p ps=0u w=520000u l=150000u
X9 a_64_n52# a_n512_n140# a_n32_n52# a_n610_n226# sky130_fd_pr__nfet_01v8 ad=0p pd=0u as=0p ps=0u w=520000u l=150000u
.ends

.subckt transmission_gate out en_b en VSS VDD in
Xsky130_fd_pr__pfet_01v8_UNG2NQ_0 in in out in out in out VDD in out out en_b out
+ sky130_fd_pr__pfet_01v8_UNG2NQ
Xsky130_fd_pr__nfet_01v8_6J4AMR_0 out in in out in in VSS out en in out out out sky130_fd_pr__nfet_01v8_6J4AMR
.ends

.subckt sky130_fd_pr__pfet_01v8_lvt_II a_n207_n140# a_n1039_n205# a_1275_n205# a_29_n205#
+ a_327_n140# a_n1275_n140# a_n683_n205# a_741_n205# a_n29_n140# a_149_n140# a_n1097_n140#
+ a_1097_n205# a_1395_n140# a_n505_n205# a_n741_n140# a_563_n205# a_861_n140# a_919_n205#
+ a_n327_n205# a_n563_n140# a_385_n205# a_1217_n140# a_n1395_n205# a_683_n140# a_n919_n140#
+ a_n149_n205# w_n1489_n241# a_1039_n140# a_n385_n140# a_207_n205# a_n1217_n205# a_505_n140#
+ a_n1453_n140# a_n861_n205#
X0 a_n919_n140# a_n1039_n205# a_n1097_n140# w_n1489_n241# sky130_fd_pr__pfet_01v8_lvt ad=4.06e+11p pd=3.38e+06u as=4.06e+11p ps=3.38e+06u w=1.4e+06u l=600000u
X1 a_505_n140# a_385_n205# a_327_n140# w_n1489_n241# sky130_fd_pr__pfet_01v8_lvt ad=4.06e+11p pd=3.38e+06u as=4.06e+11p ps=3.38e+06u w=1.4e+06u l=600000u
X2 a_n385_n140# a_n505_n205# a_n563_n140# w_n1489_n241# sky130_fd_pr__pfet_01v8_lvt ad=4.06e+11p pd=3.38e+06u as=4.06e+11p ps=3.38e+06u w=1.4e+06u l=600000u
X3 a_1395_n140# a_1275_n205# a_1217_n140# w_n1489_n241# sky130_fd_pr__pfet_01v8_lvt ad=4.06e+11p pd=3.38e+06u as=4.06e+11p ps=3.38e+06u w=1.4e+06u l=600000u
X4 a_327_n140# a_207_n205# a_149_n140# w_n1489_n241# sky130_fd_pr__pfet_01v8_lvt ad=0p pd=0u as=4.06e+11p ps=3.38e+06u w=1.4e+06u l=600000u
X5 a_149_n140# a_29_n205# a_n29_n140# w_n1489_n241# sky130_fd_pr__pfet_01v8_lvt ad=0p pd=0u as=4.06e+11p ps=3.38e+06u w=1.4e+06u l=600000u
X6 a_861_n140# a_741_n205# a_683_n140# w_n1489_n241# sky130_fd_pr__pfet_01v8_lvt ad=4.06e+11p pd=3.38e+06u as=4.06e+11p ps=3.38e+06u w=1.4e+06u l=600000u
X7 a_n207_n140# a_n327_n205# a_n385_n140# w_n1489_n241# sky130_fd_pr__pfet_01v8_lvt ad=4.06e+11p pd=3.38e+06u as=0p ps=0u w=1.4e+06u l=600000u
X8 a_1217_n140# a_1097_n205# a_1039_n140# w_n1489_n241# sky130_fd_pr__pfet_01v8_lvt ad=0p pd=0u as=4.06e+11p ps=3.38e+06u w=1.4e+06u l=600000u
X9 a_n1275_n140# a_n1395_n205# a_n1453_n140# w_n1489_n241# sky130_fd_pr__pfet_01v8_lvt ad=4.06e+11p pd=3.38e+06u as=4.06e+11p ps=3.38e+06u w=1.4e+06u l=600000u
X10 a_n741_n140# a_n861_n205# a_n919_n140# w_n1489_n241# sky130_fd_pr__pfet_01v8_lvt ad=4.06e+11p pd=3.38e+06u as=0p ps=0u w=1.4e+06u l=600000u
X11 a_n1097_n140# a_n1217_n205# a_n1275_n140# w_n1489_n241# sky130_fd_pr__pfet_01v8_lvt ad=0p pd=0u as=0p ps=0u w=1.4e+06u l=600000u
X12 a_683_n140# a_563_n205# a_505_n140# w_n1489_n241# sky130_fd_pr__pfet_01v8_lvt ad=0p pd=0u as=0p ps=0u w=1.4e+06u l=600000u
X13 a_1039_n140# a_919_n205# a_861_n140# w_n1489_n241# sky130_fd_pr__pfet_01v8_lvt ad=0p pd=0u as=0p ps=0u w=1.4e+06u l=600000u
X14 a_n29_n140# a_n149_n205# a_n207_n140# w_n1489_n241# sky130_fd_pr__pfet_01v8_lvt ad=0p pd=0u as=0p ps=0u w=1.4e+06u l=600000u
X15 a_n563_n140# a_n683_n205# a_n741_n140# w_n1489_n241# sky130_fd_pr__pfet_01v8_lvt ad=0p pd=0u as=0p ps=0u w=1.4e+06u l=600000u
.ends

.subckt sky130_fd_pr__nfet_01v8_lvt_FF a_20_n120# a_n78_n120# a_n33_n208# VSUBS
X0 a_20_n120# a_n33_n208# a_n78_n120# VSUBS sky130_fd_pr__nfet_01v8_lvt ad=3.48e+11p pd=2.98e+06u as=3.48e+11p ps=2.98e+06u w=1.2e+06u l=200000u
.ends

.subckt sky130_fd_pr__nfet_01v8_DD a_1751_n140# a_n149_n194# a_1987_n194# a_n2819_n194#
+ a_n207_n140# a_n1809_n140# a_n2877_n140# a_207_n194# a_n2285_n194# a_1453_n194#
+ a_n1217_n194# a_n3353_n194# a_327_n140# a_n1275_n140# a_n2343_n140# a_2521_n194#
+ a_n861_n194# a_1573_n140# a_n3411_n140# a_2641_n140# a_n2699_n140# a_2877_n194#
+ a_1809_n194# a_2997_n140# a_n29_n140# a_n1039_n194# a_n3175_n194# a_1929_n140# a_149_n140#
+ a_n1097_n140# a_2343_n194# a_1275_n194# a_29_n194# a_n2107_n194# a_n2165_n140# a_n3233_n140#
+ a_3411_n194# a_n683_n194# a_1395_n140# a_3531_n140# a_2463_n140# a_n741_n140# a_2699_n194#
+ a_741_n194# a_n3589_n140# a_n1751_n194# a_861_n140# a_1097_n194# a_2819_n140# a_3233_n194#
+ a_2165_n194# a_n3055_n140# a_n505_n194# a_2285_n140# a_n563_n140# a_563_n194# a_3353_n140#
+ a_1217_n140# a_n1573_n194# a_n2641_n194# a_683_n140# a_n919_n140# a_n1631_n140#
+ a_919_n194# a_3055_n194# a_n2997_n194# a_n1987_n140# a_n327_n194# a_n1929_n194#
+ a_3175_n140# a_1039_n140# a_n385_n140# a_385_n194# a_2107_n140# a_n1395_n194# a_n2463_n194#
+ a_n3531_n194# a_505_n140# a_n1453_n140# a_1631_n194# a_n2521_n140# VSUBS
X0 a_n29_n140# a_n149_n194# a_n207_n140# VSUBS sky130_fd_pr__nfet_01v8 ad=4.06e+11p pd=3.38e+06u as=4.06e+11p ps=3.38e+06u w=1.4e+06u l=600000u
X1 a_n2165_n140# a_n2285_n194# a_n2343_n140# VSUBS sky130_fd_pr__nfet_01v8 ad=4.06e+11p pd=3.38e+06u as=4.06e+11p ps=3.38e+06u w=1.4e+06u l=600000u
X2 a_n563_n140# a_n683_n194# a_n741_n140# VSUBS sky130_fd_pr__nfet_01v8 ad=4.06e+11p pd=3.38e+06u as=4.06e+11p ps=3.38e+06u w=1.4e+06u l=600000u
X3 a_n919_n140# a_n1039_n194# a_n1097_n140# VSUBS sky130_fd_pr__nfet_01v8 ad=4.06e+11p pd=3.38e+06u as=4.06e+11p ps=3.38e+06u w=1.4e+06u l=600000u
X4 a_505_n140# a_385_n194# a_327_n140# VSUBS sky130_fd_pr__nfet_01v8 ad=4.06e+11p pd=3.38e+06u as=4.06e+11p ps=3.38e+06u w=1.4e+06u l=600000u
X5 a_3175_n140# a_3055_n194# a_2997_n140# VSUBS sky130_fd_pr__nfet_01v8 ad=4.06e+11p pd=3.38e+06u as=4.06e+11p ps=3.38e+06u w=1.4e+06u l=600000u
X6 a_n3233_n140# a_n3353_n194# a_n3411_n140# VSUBS sky130_fd_pr__nfet_01v8 ad=4.06e+11p pd=3.38e+06u as=4.06e+11p ps=3.38e+06u w=1.4e+06u l=600000u
X7 a_2997_n140# a_2877_n194# a_2819_n140# VSUBS sky130_fd_pr__nfet_01v8 ad=0p pd=0u as=4.06e+11p ps=3.38e+06u w=1.4e+06u l=600000u
X8 a_n1987_n140# a_n2107_n194# a_n2165_n140# VSUBS sky130_fd_pr__nfet_01v8 ad=4.06e+11p pd=3.38e+06u as=0p ps=0u w=1.4e+06u l=600000u
X9 a_n385_n140# a_n505_n194# a_n563_n140# VSUBS sky130_fd_pr__nfet_01v8 ad=4.06e+11p pd=3.38e+06u as=0p ps=0u w=1.4e+06u l=600000u
X10 a_1395_n140# a_1275_n194# a_1217_n140# VSUBS sky130_fd_pr__nfet_01v8 ad=4.06e+11p pd=3.38e+06u as=4.06e+11p ps=3.38e+06u w=1.4e+06u l=600000u
X11 a_n1809_n140# a_n1929_n194# a_n1987_n140# VSUBS sky130_fd_pr__nfet_01v8 ad=4.06e+11p pd=3.38e+06u as=0p ps=0u w=1.4e+06u l=600000u
X12 a_n1453_n140# a_n1573_n194# a_n1631_n140# VSUBS sky130_fd_pr__nfet_01v8 ad=4.06e+11p pd=3.38e+06u as=4.06e+11p ps=3.38e+06u w=1.4e+06u l=600000u
X13 a_327_n140# a_207_n194# a_149_n140# VSUBS sky130_fd_pr__nfet_01v8 ad=0p pd=0u as=4.06e+11p ps=3.38e+06u w=1.4e+06u l=600000u
X14 a_2463_n140# a_2343_n194# a_2285_n140# VSUBS sky130_fd_pr__nfet_01v8 ad=4.06e+11p pd=3.38e+06u as=4.06e+11p ps=3.38e+06u w=1.4e+06u l=600000u
X15 a_n2521_n140# a_n2641_n194# a_n2699_n140# VSUBS sky130_fd_pr__nfet_01v8 ad=4.06e+11p pd=3.38e+06u as=4.06e+11p ps=3.38e+06u w=1.4e+06u l=600000u
X16 a_149_n140# a_29_n194# a_n29_n140# VSUBS sky130_fd_pr__nfet_01v8 ad=0p pd=0u as=0p ps=0u w=1.4e+06u l=600000u
X17 a_861_n140# a_741_n194# a_683_n140# VSUBS sky130_fd_pr__nfet_01v8 ad=4.06e+11p pd=3.38e+06u as=4.06e+11p ps=3.38e+06u w=1.4e+06u l=600000u
X18 a_3531_n140# a_3411_n194# a_3353_n140# VSUBS sky130_fd_pr__nfet_01v8 ad=4.06e+11p pd=3.38e+06u as=4.06e+11p ps=3.38e+06u w=1.4e+06u l=600000u
X19 a_1751_n140# a_1631_n194# a_1573_n140# VSUBS sky130_fd_pr__nfet_01v8 ad=4.06e+11p pd=3.38e+06u as=4.06e+11p ps=3.38e+06u w=1.4e+06u l=600000u
X20 a_n3055_n140# a_n3175_n194# a_n3233_n140# VSUBS sky130_fd_pr__nfet_01v8 ad=4.06e+11p pd=3.38e+06u as=0p ps=0u w=1.4e+06u l=600000u
X21 a_2819_n140# a_2699_n194# a_2641_n140# VSUBS sky130_fd_pr__nfet_01v8 ad=0p pd=0u as=4.06e+11p ps=3.38e+06u w=1.4e+06u l=600000u
X22 a_n2877_n140# a_n2997_n194# a_n3055_n140# VSUBS sky130_fd_pr__nfet_01v8 ad=4.06e+11p pd=3.38e+06u as=0p ps=0u w=1.4e+06u l=600000u
X23 a_n207_n140# a_n327_n194# a_n385_n140# VSUBS sky130_fd_pr__nfet_01v8 ad=0p pd=0u as=0p ps=0u w=1.4e+06u l=600000u
X24 a_1217_n140# a_1097_n194# a_1039_n140# VSUBS sky130_fd_pr__nfet_01v8 ad=0p pd=0u as=4.06e+11p ps=3.38e+06u w=1.4e+06u l=600000u
X25 a_n1275_n140# a_n1395_n194# a_n1453_n140# VSUBS sky130_fd_pr__nfet_01v8 ad=4.06e+11p pd=3.38e+06u as=0p ps=0u w=1.4e+06u l=600000u
X26 a_2285_n140# a_2165_n194# a_2107_n140# VSUBS sky130_fd_pr__nfet_01v8 ad=0p pd=0u as=4.06e+11p ps=3.38e+06u w=1.4e+06u l=600000u
X27 a_n2699_n140# a_n2819_n194# a_n2877_n140# VSUBS sky130_fd_pr__nfet_01v8 ad=0p pd=0u as=0p ps=0u w=1.4e+06u l=600000u
X28 a_n2343_n140# a_n2463_n194# a_n2521_n140# VSUBS sky130_fd_pr__nfet_01v8 ad=0p pd=0u as=0p ps=0u w=1.4e+06u l=600000u
X29 a_n741_n140# a_n861_n194# a_n919_n140# VSUBS sky130_fd_pr__nfet_01v8 ad=0p pd=0u as=0p ps=0u w=1.4e+06u l=600000u
X30 a_2107_n140# a_1987_n194# a_1929_n140# VSUBS sky130_fd_pr__nfet_01v8 ad=0p pd=0u as=4.06e+11p ps=3.38e+06u w=1.4e+06u l=600000u
X31 a_n1097_n140# a_n1217_n194# a_n1275_n140# VSUBS sky130_fd_pr__nfet_01v8 ad=0p pd=0u as=0p ps=0u w=1.4e+06u l=600000u
X32 a_683_n140# a_563_n194# a_505_n140# VSUBS sky130_fd_pr__nfet_01v8 ad=0p pd=0u as=0p ps=0u w=1.4e+06u l=600000u
X33 a_1039_n140# a_919_n194# a_861_n140# VSUBS sky130_fd_pr__nfet_01v8 ad=0p pd=0u as=0p ps=0u w=1.4e+06u l=600000u
X34 a_3353_n140# a_3233_n194# a_3175_n140# VSUBS sky130_fd_pr__nfet_01v8 ad=0p pd=0u as=0p ps=0u w=1.4e+06u l=600000u
X35 a_n3411_n140# a_n3531_n194# a_n3589_n140# VSUBS sky130_fd_pr__nfet_01v8 ad=0p pd=0u as=4.06e+11p ps=3.38e+06u w=1.4e+06u l=600000u
X36 a_1573_n140# a_1453_n194# a_1395_n140# VSUBS sky130_fd_pr__nfet_01v8 ad=0p pd=0u as=0p ps=0u w=1.4e+06u l=600000u
X37 a_1929_n140# a_1809_n194# a_1751_n140# VSUBS sky130_fd_pr__nfet_01v8 ad=0p pd=0u as=0p ps=0u w=1.4e+06u l=600000u
X38 a_n1631_n140# a_n1751_n194# a_n1809_n140# VSUBS sky130_fd_pr__nfet_01v8 ad=0p pd=0u as=0p ps=0u w=1.4e+06u l=600000u
X39 a_2641_n140# a_2521_n194# a_2463_n140# VSUBS sky130_fd_pr__nfet_01v8 ad=0p pd=0u as=0p ps=0u w=1.4e+06u l=600000u
.ends

.subckt sky130_fd_pr__nfet_01v8_CC a_n1008_n140# a_2374_n140# a_1306_n140# a_n652_n140#
+ a_652_n194# a_n1662_n194# a_772_n140# a_n2730_n194# a_n1720_n140# a_n60_n194# a_2076_n194#
+ a_1008_n194# a_2196_n140# a_n474_n140# a_n416_n194# a_1128_n140# a_474_n194# a_n1484_n194#
+ a_n2552_n194# a_594_n140# a_n1542_n140# a_n2610_n140# a_1720_n194# a_1840_n140#
+ a_n238_n194# a_n2908_n194# a_3086_n140# a_n296_n140# a_n1898_n140# a_n2966_n140#
+ a_296_n194# a_2018_n140# a_60_n140# a_n1306_n194# a_n2374_n194# a_n1364_n140# a_1542_n194#
+ a_416_n140# a_n2432_n140# a_2610_n194# a_n950_n194# a_1662_n140# a_2730_n140# a_2966_n194#
+ a_1898_n194# a_n2788_n140# a_n118_n140# a_118_n194# a_n2196_n194# a_n1128_n194#
+ a_238_n140# a_n1186_n140# a_n2254_n140# a_2432_n194# a_1364_n194# a_n772_n194# a_2552_n140#
+ a_1484_n140# a_n830_n140# a_2788_n194# a_830_n194# a_n1840_n194# a_950_n140# a_n3086_n194#
+ a_2908_n140# a_1186_n194# a_n2018_n194# a_n2076_n140# a_n3144_n140# a_2254_n194#
+ a_n594_n194# VSUBS
X0 a_2374_n140# a_2254_n194# a_2196_n140# VSUBS sky130_fd_pr__nfet_01v8 ad=4.06e+11p pd=3.38e+06u as=4.06e+11p ps=3.38e+06u w=1.4e+06u l=600000u
X1 a_n2788_n140# a_n2908_n194# a_n2966_n140# VSUBS sky130_fd_pr__nfet_01v8 ad=4.06e+11p pd=3.38e+06u as=4.06e+11p ps=3.38e+06u w=1.4e+06u l=600000u
X2 a_n2432_n140# a_n2552_n194# a_n2610_n140# VSUBS sky130_fd_pr__nfet_01v8 ad=4.06e+11p pd=3.38e+06u as=4.06e+11p ps=3.38e+06u w=1.4e+06u l=600000u
X3 a_1128_n140# a_1008_n194# a_950_n140# VSUBS sky130_fd_pr__nfet_01v8 ad=4.06e+11p pd=3.38e+06u as=4.06e+11p ps=3.38e+06u w=1.4e+06u l=600000u
X4 a_n1186_n140# a_n1306_n194# a_n1364_n140# VSUBS sky130_fd_pr__nfet_01v8 ad=4.06e+11p pd=3.38e+06u as=4.06e+11p ps=3.38e+06u w=1.4e+06u l=600000u
X5 a_772_n140# a_652_n194# a_594_n140# VSUBS sky130_fd_pr__nfet_01v8 ad=4.06e+11p pd=3.38e+06u as=4.06e+11p ps=3.38e+06u w=1.4e+06u l=600000u
X6 a_1662_n140# a_1542_n194# a_1484_n140# VSUBS sky130_fd_pr__nfet_01v8 ad=4.06e+11p pd=3.38e+06u as=4.06e+11p ps=3.38e+06u w=1.4e+06u l=600000u
X7 a_n2966_n140# a_n3086_n194# a_n3144_n140# VSUBS sky130_fd_pr__nfet_01v8 ad=0p pd=0u as=4.06e+11p ps=3.38e+06u w=1.4e+06u l=600000u
X8 a_2730_n140# a_2610_n194# a_2552_n140# VSUBS sky130_fd_pr__nfet_01v8 ad=4.06e+11p pd=3.38e+06u as=4.06e+11p ps=3.38e+06u w=1.4e+06u l=600000u
X9 a_n118_n140# a_n238_n194# a_n296_n140# VSUBS sky130_fd_pr__nfet_01v8 ad=4.06e+11p pd=3.38e+06u as=4.06e+11p ps=3.38e+06u w=1.4e+06u l=600000u
X10 a_2196_n140# a_2076_n194# a_2018_n140# VSUBS sky130_fd_pr__nfet_01v8 ad=0p pd=0u as=4.06e+11p ps=3.38e+06u w=1.4e+06u l=600000u
X11 a_n2610_n140# a_n2730_n194# a_n2788_n140# VSUBS sky130_fd_pr__nfet_01v8 ad=0p pd=0u as=0p ps=0u w=1.4e+06u l=600000u
X12 a_n2254_n140# a_n2374_n194# a_n2432_n140# VSUBS sky130_fd_pr__nfet_01v8 ad=4.06e+11p pd=3.38e+06u as=0p ps=0u w=1.4e+06u l=600000u
X13 a_n652_n140# a_n772_n194# a_n830_n140# VSUBS sky130_fd_pr__nfet_01v8 ad=4.06e+11p pd=3.38e+06u as=4.06e+11p ps=3.38e+06u w=1.4e+06u l=600000u
X14 a_2018_n140# a_1898_n194# a_1840_n140# VSUBS sky130_fd_pr__nfet_01v8 ad=0p pd=0u as=4.06e+11p ps=3.38e+06u w=1.4e+06u l=600000u
X15 a_n1008_n140# a_n1128_n194# a_n1186_n140# VSUBS sky130_fd_pr__nfet_01v8 ad=4.06e+11p pd=3.38e+06u as=0p ps=0u w=1.4e+06u l=600000u
X16 a_594_n140# a_474_n194# a_416_n140# VSUBS sky130_fd_pr__nfet_01v8 ad=0p pd=0u as=4.06e+11p ps=3.38e+06u w=1.4e+06u l=600000u
X17 a_60_n140# a_n60_n194# a_n118_n140# VSUBS sky130_fd_pr__nfet_01v8 ad=4.06e+11p pd=3.38e+06u as=0p ps=0u w=1.4e+06u l=600000u
X18 a_3086_n140# a_2966_n194# a_2908_n140# VSUBS sky130_fd_pr__nfet_01v8 ad=4.06e+11p pd=3.38e+06u as=4.06e+11p ps=3.38e+06u w=1.4e+06u l=600000u
X19 a_1484_n140# a_1364_n194# a_1306_n140# VSUBS sky130_fd_pr__nfet_01v8 ad=0p pd=0u as=4.06e+11p ps=3.38e+06u w=1.4e+06u l=600000u
X20 a_n1542_n140# a_n1662_n194# a_n1720_n140# VSUBS sky130_fd_pr__nfet_01v8 ad=4.06e+11p pd=3.38e+06u as=4.06e+11p ps=3.38e+06u w=1.4e+06u l=600000u
X21 a_2552_n140# a_2432_n194# a_2374_n140# VSUBS sky130_fd_pr__nfet_01v8 ad=0p pd=0u as=0p ps=0u w=1.4e+06u l=600000u
X22 a_950_n140# a_830_n194# a_772_n140# VSUBS sky130_fd_pr__nfet_01v8 ad=0p pd=0u as=0p ps=0u w=1.4e+06u l=600000u
X23 a_n2076_n140# a_n2196_n194# a_n2254_n140# VSUBS sky130_fd_pr__nfet_01v8 ad=4.06e+11p pd=3.38e+06u as=0p ps=0u w=1.4e+06u l=600000u
X24 a_n830_n140# a_n950_n194# a_n1008_n140# VSUBS sky130_fd_pr__nfet_01v8 ad=0p pd=0u as=0p ps=0u w=1.4e+06u l=600000u
X25 a_n474_n140# a_n594_n194# a_n652_n140# VSUBS sky130_fd_pr__nfet_01v8 ad=4.06e+11p pd=3.38e+06u as=0p ps=0u w=1.4e+06u l=600000u
X26 a_1840_n140# a_1720_n194# a_1662_n140# VSUBS sky130_fd_pr__nfet_01v8 ad=0p pd=0u as=0p ps=0u w=1.4e+06u l=600000u
X27 a_416_n140# a_296_n194# a_238_n140# VSUBS sky130_fd_pr__nfet_01v8 ad=0p pd=0u as=4.06e+11p ps=3.38e+06u w=1.4e+06u l=600000u
X28 a_2908_n140# a_2788_n194# a_2730_n140# VSUBS sky130_fd_pr__nfet_01v8 ad=0p pd=0u as=0p ps=0u w=1.4e+06u l=600000u
X29 a_n1898_n140# a_n2018_n194# a_n2076_n140# VSUBS sky130_fd_pr__nfet_01v8 ad=4.06e+11p pd=3.38e+06u as=0p ps=0u w=1.4e+06u l=600000u
X30 a_n296_n140# a_n416_n194# a_n474_n140# VSUBS sky130_fd_pr__nfet_01v8 ad=0p pd=0u as=0p ps=0u w=1.4e+06u l=600000u
X31 a_1306_n140# a_1186_n194# a_1128_n140# VSUBS sky130_fd_pr__nfet_01v8 ad=0p pd=0u as=0p ps=0u w=1.4e+06u l=600000u
X32 a_n1720_n140# a_n1840_n194# a_n1898_n140# VSUBS sky130_fd_pr__nfet_01v8 ad=0p pd=0u as=0p ps=0u w=1.4e+06u l=600000u
X33 a_n1364_n140# a_n1484_n194# a_n1542_n140# VSUBS sky130_fd_pr__nfet_01v8 ad=0p pd=0u as=0p ps=0u w=1.4e+06u l=600000u
X34 a_238_n140# a_118_n194# a_60_n140# VSUBS sky130_fd_pr__nfet_01v8 ad=0p pd=0u as=0p ps=0u w=1.4e+06u l=600000u
.ends

.subckt sky130_fd_pr__nfet_01v8_BB a_n1008_n140# a_n652_n140# a_652_n194# a_772_n140#
+ a_n60_n194# a_n474_n140# a_n416_n194# a_474_n194# a_594_n140# a_n238_n194# a_n296_n140#
+ a_296_n194# a_60_n140# a_416_n140# a_n950_n194# a_n118_n140# a_118_n194# a_238_n140#
+ a_n772_n194# a_n830_n140# a_830_n194# a_950_n140# a_n594_n194# VSUBS
X0 a_772_n140# a_652_n194# a_594_n140# VSUBS sky130_fd_pr__nfet_01v8 ad=4.06e+11p pd=3.38e+06u as=4.06e+11p ps=3.38e+06u w=1.4e+06u l=600000u
X1 a_n118_n140# a_n238_n194# a_n296_n140# VSUBS sky130_fd_pr__nfet_01v8 ad=4.06e+11p pd=3.38e+06u as=4.06e+11p ps=3.38e+06u w=1.4e+06u l=600000u
X2 a_n652_n140# a_n772_n194# a_n830_n140# VSUBS sky130_fd_pr__nfet_01v8 ad=4.06e+11p pd=3.38e+06u as=4.06e+11p ps=3.38e+06u w=1.4e+06u l=600000u
X3 a_594_n140# a_474_n194# a_416_n140# VSUBS sky130_fd_pr__nfet_01v8 ad=0p pd=0u as=4.06e+11p ps=3.38e+06u w=1.4e+06u l=600000u
X4 a_60_n140# a_n60_n194# a_n118_n140# VSUBS sky130_fd_pr__nfet_01v8 ad=4.06e+11p pd=3.38e+06u as=0p ps=0u w=1.4e+06u l=600000u
X5 a_950_n140# a_830_n194# a_772_n140# VSUBS sky130_fd_pr__nfet_01v8 ad=4.06e+11p pd=3.38e+06u as=0p ps=0u w=1.4e+06u l=600000u
X6 a_n830_n140# a_n950_n194# a_n1008_n140# VSUBS sky130_fd_pr__nfet_01v8 ad=0p pd=0u as=4.06e+11p ps=3.38e+06u w=1.4e+06u l=600000u
X7 a_n474_n140# a_n594_n194# a_n652_n140# VSUBS sky130_fd_pr__nfet_01v8 ad=4.06e+11p pd=3.38e+06u as=0p ps=0u w=1.4e+06u l=600000u
X8 a_416_n140# a_296_n194# a_238_n140# VSUBS sky130_fd_pr__nfet_01v8 ad=0p pd=0u as=4.06e+11p ps=3.38e+06u w=1.4e+06u l=600000u
X9 a_n296_n140# a_n416_n194# a_n474_n140# VSUBS sky130_fd_pr__nfet_01v8 ad=0p pd=0u as=0p ps=0u w=1.4e+06u l=600000u
X10 a_238_n140# a_118_n194# a_60_n140# VSUBS sky130_fd_pr__nfet_01v8 ad=0p pd=0u as=0p ps=0u w=1.4e+06u l=600000u
.ends

.subckt sky130_fd_pr__pfet_01v8_HH a_n1008_n140# a_n416_n205# a_1306_n140# a_n652_n140#
+ a_474_n205# a_n1484_n205# a_772_n140# a_n1720_n140# a_1720_n205# a_n238_n205# a_n474_n140#
+ a_296_n205# a_1128_n140# a_594_n140# a_1542_n205# a_n1306_n205# w_n2112_n240# a_n1542_n140#
+ a_n950_n205# a_1840_n140# a_1898_n205# a_n296_n140# a_n1898_n140# a_2018_n140# a_60_n140#
+ a_118_n205# a_n1128_n205# a_n1364_n140# a_1364_n205# a_416_n140# a_n772_n205# a_1662_n140#
+ a_830_n205# a_n1840_n205# a_n118_n140# a_1186_n205# a_n2018_n205# a_238_n140# a_n1186_n140#
+ a_n594_n205# a_1484_n140# a_n830_n140# a_652_n205# a_n1662_n205# a_950_n140# a_n60_n205#
+ a_n2076_n140# a_1008_n205#
X0 a_1662_n140# a_1542_n205# a_1484_n140# w_n2112_n240# sky130_fd_pr__pfet_01v8 ad=4.06e+11p pd=3.38e+06u as=4.06e+11p ps=3.38e+06u w=1.4e+06u l=600000u
X1 a_n118_n140# a_n238_n205# a_n296_n140# w_n2112_n240# sky130_fd_pr__pfet_01v8 ad=4.06e+11p pd=3.38e+06u as=4.06e+11p ps=3.38e+06u w=1.4e+06u l=600000u
X2 a_n652_n140# a_n772_n205# a_n830_n140# w_n2112_n240# sky130_fd_pr__pfet_01v8 ad=4.06e+11p pd=3.38e+06u as=4.06e+11p ps=3.38e+06u w=1.4e+06u l=600000u
X3 a_2018_n140# a_1898_n205# a_1840_n140# w_n2112_n240# sky130_fd_pr__pfet_01v8 ad=4.06e+11p pd=3.38e+06u as=4.06e+11p ps=3.38e+06u w=1.4e+06u l=600000u
X4 a_n1008_n140# a_n1128_n205# a_n1186_n140# w_n2112_n240# sky130_fd_pr__pfet_01v8 ad=4.06e+11p pd=3.38e+06u as=4.06e+11p ps=3.38e+06u w=1.4e+06u l=600000u
X5 a_594_n140# a_474_n205# a_416_n140# w_n2112_n240# sky130_fd_pr__pfet_01v8 ad=4.06e+11p pd=3.38e+06u as=4.06e+11p ps=3.38e+06u w=1.4e+06u l=600000u
X6 a_60_n140# a_n60_n205# a_n118_n140# w_n2112_n240# sky130_fd_pr__pfet_01v8 ad=4.06e+11p pd=3.38e+06u as=0p ps=0u w=1.4e+06u l=600000u