* NGSPICE file created from clock.ext - technology: sky130A

.subckt sky130_fd_sc_hd__clkbuf_16 A VGND VPWR X a_110_47# VNB VPB
X0 VPWR A a_110_47# VPB sky130_fd_pr__pfet_01v8_hvt ad=3.045e+12p pd=2.809e+07u as=5.6e+11p ps=5.12e+06u w=1e+06u l=150000u
X1 VPWR a_110_47# X VPB sky130_fd_pr__pfet_01v8_hvt ad=0p pd=0u as=2.24e+12p ps=2.048e+07u w=1e+06u l=150000u
X2 X a_110_47# VPWR VPB sky130_fd_pr__pfet_01v8_hvt ad=0p pd=0u as=0p ps=0u w=1e+06u l=150000u
X3 X a_110_47# VPWR VPB sky130_fd_pr__pfet_01v8_hvt ad=0p pd=0u as=0p ps=0u w=1e+06u l=150000u
X4 VPWR a_110_47# X VPB sky130_fd_pr__pfet_01v8_hvt ad=0p pd=0u as=0p ps=0u w=1e+06u l=150000u
X5 VPWR a_110_47# X VPB sky130_fd_pr__pfet_01v8_hvt ad=0p pd=0u as=0p ps=0u w=1e+06u l=150000u
X6 a_110_47# A VPWR VPB sky130_fd_pr__pfet_01v8_hvt ad=0p pd=0u as=0p ps=0u w=1e+06u l=150000u
X7 a_110_47# A VGND VNB sky130_fd_pr__nfet_01v8 ad=2.352e+11p pd=2.8e+06u as=1.2789e+12p ps=1.533e+07u w=420000u l=150000u
X8 VGND a_110_47# X VNB sky130_fd_pr__nfet_01v8 ad=0p pd=0u as=9.408e+11p ps=1.12e+07u w=420000u l=150000u
X9 X a_110_47# VGND VNB sky130_fd_pr__nfet_01v8 ad=0p pd=0u as=0p ps=0u w=420000u l=150000u
X10 VGND a_110_47# X VNB sky130_fd_pr__nfet_01v8 ad=0p pd=0u as=0p ps=0u w=420000u l=150000u
X11 a_110_47# A VPWR VPB sky130_fd_pr__pfet_01v8_hvt ad=0p pd=0u as=0p ps=0u w=1e+06u l=150000u
X12 VGND A a_110_47# VNB sky130_fd_pr__nfet_01v8 ad=0p pd=0u as=0p ps=0u w=420000u l=150000u
X13 VGND a_110_47# X VNB sky130_fd_pr__nfet_01v8 ad=0p pd=0u as=0p ps=0u w=420000u l=150000u
X14 VPWR a_110_47# X VPB sky130_fd_pr__pfet_01v8_hvt ad=0p pd=0u as=0p ps=0u w=1e+06u l=150000u
X15 X a_110_47# VPWR VPB sky130_fd_pr__pfet_01v8_hvt ad=0p pd=0u as=0p ps=0u w=1e+06u l=150000u
X16 VGND A a_110_47# VNB sky130_fd_pr__nfet_01v8 ad=0p pd=0u as=0p ps=0u w=420000u l=150000u
X17 VGND a_110_47# X VNB sky130_fd_pr__nfet_01v8 ad=0p pd=0u as=0p ps=0u w=420000u l=150000u
X18 VPWR a_110_47# X VPB sky130_fd_pr__pfet_01v8_hvt ad=0p pd=0u as=0p ps=0u w=1e+06u l=150000u
X19 VGND a_110_47# X VNB sky130_fd_pr__nfet_01v8 ad=0p pd=0u as=0p ps=0u w=420000u l=150000u
X20 X a_110_47# VPWR VPB sky130_fd_pr__pfet_01v8_hvt ad=0p pd=0u as=0p ps=0u w=1e+06u l=150000u
X21 a_110_47# A VGND VNB sky130_fd_pr__nfet_01v8 ad=0p pd=0u as=0p ps=0u w=420000u l=150000u
X22 VPWR A a_110_47# VPB sky130_fd_pr__pfet_01v8_hvt ad=0p pd=0u as=0p ps=0u w=1e+06u l=150000u
X23 VPWR a_110_47# X VPB sky130_fd_pr__pfet_01v8_hvt ad=0p pd=0u as=0p ps=0u w=1e+06u l=150000u
X24 VPWR a_110_47# X VPB sky130_fd_pr__pfet_01v8_hvt ad=0p pd=0u as=0p ps=0u w=1e+06u l=150000u
X25 VGND a_110_47# X VNB sky130_fd_pr__nfet_01v8 ad=0p pd=0u as=0p ps=0u w=420000u l=150000u
X26 X a_110_47# VPWR VPB sky130_fd_pr__pfet_01v8_hvt ad=0p pd=0u as=0p ps=0u w=1e+06u l=150000u
X27 VGND a_110_47# X VNB sky130_fd_pr__nfet_01v8 ad=0p pd=0u as=0p ps=0u w=420000u l=150000u
X28 VGND a_110_47# X VNB sky130_fd_pr__nfet_01v8 ad=0p pd=0u as=0p ps=0u w=420000u l=150000u
X29 X a_110_47# VGND VNB sky130_fd_pr__nfet_01v8 ad=0p pd=0u as=0p ps=0u w=420000u l=150000u
X30 X a_110_47# VPWR VPB sky130_fd_pr__pfet_01v8_hvt ad=0p pd=0u as=0p ps=0u w=1e+06u l=150000u
X31 X a_110_47# VPWR VPB sky130_fd_pr__pfet_01v8_hvt ad=0p pd=0u as=0p ps=0u w=1e+06u l=150000u
X32 X a_110_47# VGND VNB sky130_fd_pr__nfet_01v8 ad=0p pd=0u as=0p ps=0u w=420000u l=150000u
X33 VPWR a_110_47# X VPB sky130_fd_pr__pfet_01v8_hvt ad=0p pd=0u as=0p ps=0u w=1e+06u l=150000u
X34 X a_110_47# VPWR VPB sky130_fd_pr__pfet_01v8_hvt ad=0p pd=0u as=0p ps=0u w=1e+06u l=150000u
X35 X a_110_47# VGND VNB sky130_fd_pr__nfet_01v8 ad=0p pd=0u as=0p ps=0u w=420000u l=150000u
X36 X a_110_47# VGND VNB sky130_fd_pr__nfet_01v8 ad=0p pd=0u as=0p ps=0u w=420000u l=150000u
X37 X a_110_47# VGND VNB sky130_fd_pr__nfet_01v8 ad=0p pd=0u as=0p ps=0u w=420000u l=150000u
X38 X a_110_47# VGND VNB sky130_fd_pr__nfet_01v8 ad=0p pd=0u as=0p ps=0u w=420000u l=150000u
X39 X a_110_47# VGND VNB sky130_fd_pr__nfet_01v8 ad=0p pd=0u as=0p ps=0u w=420000u l=150000u
C0 VPB A 0.23fF
C1 VPB VPWR 0.78fF
C2 VPB X 0.03fF
C3 A VPWR 0.07fF
C4 A X 0.00fF
C5 A VGND 0.10fF
C6 VPWR X 2.96fF
C7 a_110_47# VPB 0.81fF
C8 VPWR VGND 0.28fF
C9 a_110_47# A 0.51fF
C10 X VGND 1.95fF
C11 a_110_47# VPWR 0.98fF
C12 a_110_47# X 2.36fF
C13 a_110_47# VGND 0.78fF
C14 VGND VNB 1.05fF
C15 X VNB 0.10fF
C16 VPWR VNB 0.39fF
C17 A VNB 0.43fF
C18 VPB VNB 1.85fF
C19 a_110_47# VNB 1.28fF
.ends

.subckt sky130_fd_sc_hd__decap_4 VGND VPWR VNB VPB
X0 VPWR VGND VPWR VPB sky130_fd_pr__pfet_01v8_hvt ad=4.524e+11p pd=4.52e+06u as=0p ps=0u w=870000u l=1.05e+06u
X1 VGND VPWR VGND VNB sky130_fd_pr__nfet_01v8 ad=2.86e+11p pd=3.24e+06u as=0p ps=0u w=550000u l=1.05e+06u
C0 VPB VGND 0.25fF
C1 VGND VPWR 0.82fF
C2 VPB VPWR 0.27fF
C3 VPWR VNB 0.41fF
C4 VGND VNB 0.37fF
C5 VPB VNB 0.43fF
.ends

.subckt sky130_fd_sc_hd__decap_12 VGND VPWR VNB VPB
X0 VPWR VGND VPWR VPB sky130_fd_pr__pfet_01v8_hvt ad=4.524e+11p pd=4.52e+06u as=0p ps=0u w=870000u l=4.73e+06u
X1 VGND VPWR VGND VNB sky130_fd_pr__nfet_01v8 ad=2.86e+11p pd=3.24e+06u as=0p ps=0u w=550000u l=4.73e+06u
C0 VGND VPWR 3.03fF
C1 VGND VPB 0.87fF
C2 VPB VPWR 0.47fF
C3 VPWR VNB 1.33fF
C4 VGND VNB 0.77fF
C5 VPB VNB 1.14fF
.ends

.subckt sky130_fd_sc_hd__clkdlybuf4s50_1 A VGND VPWR X VNB VPB a_283_47# a_390_47#
+ a_27_47#
X0 a_283_47# a_27_47# VPWR VPB sky130_fd_pr__pfet_01v8_hvt ad=2.173e+11p pd=2.17e+06u as=6.517e+11p ps=5.37e+06u w=820000u l=500000u
X1 VPWR A a_27_47# VPB sky130_fd_pr__pfet_01v8_hvt ad=0p pd=0u as=2.7e+11p ps=2.54e+06u w=1e+06u l=150000u
X2 VPWR a_283_47# a_390_47# VPB sky130_fd_pr__pfet_01v8_hvt ad=0p pd=0u as=2.173e+11p ps=2.17e+06u w=820000u l=500000u
X3 VGND a_283_47# a_390_47# VNB sky130_fd_pr__nfet_01v8 ad=4.027e+11p pd=3.97e+06u as=1.7225e+11p ps=1.83e+06u w=650000u l=500000u
X4 X a_390_47# VPWR VPB sky130_fd_pr__pfet_01v8_hvt ad=3.55e+11p pd=2.71e+06u as=0p ps=0u w=1e+06u l=150000u
X5 VGND A a_27_47# VNB sky130_fd_pr__nfet_01v8 ad=0p pd=0u as=1.134e+11p ps=1.38e+06u w=420000u l=150000u
X6 a_283_47# a_27_47# VGND VNB sky130_fd_pr__nfet_01v8 ad=1.69e+11p pd=1.82e+06u as=0p ps=0u w=650000u l=500000u
X7 X a_390_47# VGND VNB sky130_fd_pr__nfet_01v8 ad=1.491e+11p pd=1.55e+06u as=0p ps=0u w=420000u l=150000u
C0 a_283_47# VGND 0.14fF
C1 a_283_47# A 0.02fF
C2 a_27_47# X 0.02fF
C3 a_27_47# VPB 0.16fF
C4 VPB X 0.05fF
C5 a_283_47# VPWR 0.17fF
C6 a_27_47# a_390_47# 0.05fF
C7 a_390_47# X 0.12fF
C8 a_27_47# VGND 0.24fF
C9 a_27_47# A 0.29fF
C10 a_390_47# VPB 0.06fF
C11 X VGND 0.14fF
C12 A X 0.00fF
C13 VPB A 0.06fF
C14 a_390_47# VGND 0.14fF
C15 a_27_47# VPWR 0.31fF
C16 a_390_47# A 0.01fF
C17 A VGND 0.02fF
C18 VPWR X 0.19fF
C19 VPB VPWR 0.32fF
C20 a_390_47# VPWR 0.16fF
C21 VPWR VGND 0.11fF
C22 A VPWR 0.02fF
C23 a_283_47# a_27_47# 0.18fF
C24 a_283_47# X 0.04fF
C25 a_283_47# VPB 0.12fF
C26 a_283_47# a_390_47# 0.44fF
C27 VGND VNB 0.43fF
C28 X VNB 0.05fF
C29 VPWR VNB 0.16fF
C30 A VNB 0.13fF
C31 VPB VNB 0.78fF
C32 a_390_47# VNB 0.10fF
C33 a_283_47# VNB 0.18fF
C34 a_27_47# VNB 0.18fF
.ends

.subckt sky130_fd_sc_hd__clkinv_4 A VGND VPWR Y VNB VPB
X0 Y A VPWR VPB sky130_fd_pr__pfet_01v8_hvt ad=8.4e+11p pd=7.68e+06u as=1.21e+12p ps=1.042e+07u w=1e+06u l=150000u
X1 VGND A Y VNB sky130_fd_pr__nfet_01v8 ad=4.221e+11p pd=4.53e+06u as=2.352e+11p ps=2.8e+06u w=420000u l=150000u
X2 VGND A Y VNB sky130_fd_pr__nfet_01v8 ad=0p pd=0u as=0p ps=0u w=420000u l=150000u
X3 VPWR A Y VPB sky130_fd_pr__pfet_01v8_hvt ad=0p pd=0u as=0p ps=0u w=1e+06u l=150000u
X4 VPWR A Y VPB sky130_fd_pr__pfet_01v8_hvt ad=0p pd=0u as=0p ps=0u w=1e+06u l=150000u
X5 Y A VGND VNB sky130_fd_pr__nfet_01v8 ad=0p pd=0u as=0p ps=0u w=420000u l=150000u
X6 Y A VPWR VPB sky130_fd_pr__pfet_01v8_hvt ad=0p pd=0u as=0p ps=0u w=1e+06u l=150000u
X7 Y A VGND VNB sky130_fd_pr__nfet_01v8 ad=0p pd=0u as=0p ps=0u w=420000u l=150000u
X8 Y A VPWR VPB sky130_fd_pr__pfet_01v8_hvt ad=0p pd=0u as=0p ps=0u w=1e+06u l=150000u
X9 VPWR A Y VPB sky130_fd_pr__pfet_01v8_hvt ad=0p pd=0u as=0p ps=0u w=1e+06u l=150000u
C0 Y A 0.88fF
C1 VGND VPWR 0.10fF
C2 VGND Y 0.56fF
C3 VGND A 0.13fF
C4 VPWR VPB 0.34fF
C5 VPB Y 0.05fF
C6 VPWR Y 1.13fF
C7 VPB A 0.21fF
C8 VPWR A 0.13fF
C9 VGND VNB 0.40fF
C10 Y VNB 0.10fF
C11 VPWR VNB 0.14fF
C12 A VNB 0.47fF
C13 VPB VNB 0.69fF
.ends

.subckt sky130_fd_sc_hd__nand2_4 A B VGND VPWR Y VNB VPB a_27_47#
X0 a_27_47# A Y VNB sky130_fd_pr__nfet_01v8 ad=8.645e+11p pd=9.16e+06u as=3.51e+11p ps=3.68e+06u w=650000u l=150000u
X1 a_27_47# A Y VNB sky130_fd_pr__nfet_01v8 ad=0p pd=0u as=0p ps=0u w=650000u l=150000u
X2 Y A VPWR VPB sky130_fd_pr__pfet_01v8_hvt ad=1.08e+12p pd=1.016e+07u as=1.33e+12p ps=1.266e+07u w=1e+06u l=150000u
X3 VPWR B Y VPB sky130_fd_pr__pfet_01v8_hvt ad=0p pd=0u as=0p ps=0u w=1e+06u l=150000u
X4 Y B VPWR VPB sky130_fd_pr__pfet_01v8_hvt ad=0p pd=0u as=0p ps=0u w=1e+06u l=150000u
X5 VPWR B Y VPB sky130_fd_pr__pfet_01v8_hvt ad=0p pd=0u as=0p ps=0u w=1e+06u l=150000u
X6 a_27_47# B VGND VNB sky130_fd_pr__nfet_01v8 ad=0p pd=0u as=3.51e+11p ps=3.68e+06u w=650000u l=150000u
X7 a_27_47# B VGND VNB sky130_fd_pr__nfet_01v8 ad=0p pd=0u as=0p ps=0u w=650000u l=150000u
X8 VPWR A Y VPB sky130_fd_pr__pfet_01v8_hvt ad=0p pd=0u as=0p ps=0u w=1e+06u l=150000u
X9 VGND B a_27_47# VNB sky130_fd_pr__nfet_01v8 ad=0p pd=0u as=0p ps=0u w=650000u l=150000u
X10 Y A a_27_47# VNB sky130_fd_pr__nfet_01v8 ad=0p pd=0u as=0p ps=0u w=650000u l=150000u
X11 Y A VPWR VPB sky130_fd_pr__pfet_01v8_hvt ad=0p pd=0u as=0p ps=0u w=1e+06u l=150000u
X12 Y A a_27_47# VNB sky130_fd_pr__nfet_01v8 ad=0p pd=0u as=0p ps=0u w=650000u l=150000u
X13 VPWR A Y VPB sky130_fd_pr__pfet_01v8_hvt ad=0p pd=0u as=0p ps=0u w=1e+06u l=150000u
X14 Y B VPWR VPB sky130_fd_pr__pfet_01v8_hvt ad=0p pd=0u as=0p ps=0u w=1e+06u l=150000u
X15 VGND B a_27_47# VNB sky130_fd_pr__nfet_01v8 ad=0p pd=0u as=0p ps=0u w=650000u l=150000u
C0 a_27_47# VGND 0.77fF
C1 a_27_47# A 0.10fF
C2 VGND A 0.08fF
C3 a_27_47# B 0.33fF
C4 B VGND 0.10fF
C5 B A 0.16fF
C6 Y VPB 0.02fF
C7 Y VPWR 1.44fF
C8 Y a_27_47# 0.41fF
C9 Y VGND 0.13fF
C10 Y A 0.35fF
C11 Y B 0.30fF
C12 VPB VPWR 0.43fF
C13 VPB A 0.18fF
C14 VPB B 0.21fF
C15 a_27_47# VPWR 0.07fF
C16 VGND VPWR 0.12fF
C17 A VPWR 0.09fF
C18 B VPWR 0.12fF
C19 VGND VNB 0.48fF
C20 Y VNB 0.01fF
C21 VPWR VNB 0.18fF
C22 A VNB 0.26fF
C23 B VNB 0.30fF
C24 VPB VNB 0.87fF
C25 a_27_47# VNB 0.06fF
.ends

.subckt sky130_fd_sc_hd__decap_3 VGND VPWR VNB VPB
X0 VPWR VGND VPWR VPB sky130_fd_pr__pfet_01v8_hvt ad=4.524e+11p pd=4.52e+06u as=0p ps=0u w=870000u l=590000u
X1 VGND VPWR VGND VNB sky130_fd_pr__nfet_01v8 ad=2.86e+11p pd=3.24e+06u as=0p ps=0u w=550000u l=590000u
C0 VGND VPB 0.16fF
C1 VPWR VPB 0.24fF
C2 VPWR VGND 0.54fF
C3 VPWR VNB 0.28fF
C4 VGND VNB 0.31fF
C5 VPB VNB 0.34fF
.ends

.subckt sky130_fd_sc_hd__decap_8 VGND VPWR VNB VPB
X0 VPWR VGND VPWR VPB sky130_fd_pr__pfet_01v8_hvt ad=4.524e+11p pd=4.52e+06u as=0p ps=0u w=870000u l=2.89e+06u
X1 VGND VPWR VGND VNB sky130_fd_pr__nfet_01v8 ad=2.86e+11p pd=3.24e+06u as=0p ps=0u w=550000u l=2.89e+06u
C0 VGND VPB 0.55fF
C1 VPWR VPB 0.37fF
C2 VPWR VGND 1.92fF
C3 VPWR VNB 0.86fF
C4 VGND VNB 0.56fF
C5 VPB VNB 0.78fF
.ends

.subckt sky130_fd_sc_hd__dfxbp_1 CLK D VGND VPWR Q Q_N a_975_413# a_891_413# VNB VPB
+ a_466_413# a_592_47# a_1059_315# a_193_47# a_561_413# a_634_159# a_381_47# a_1017_47#
+ a_1490_369# a_27_47#
X0 Q a_1059_315# VGND VNB sky130_fd_pr__nfet_01v8 ad=1.69e+11p pd=1.82e+06u as=9.432e+11p ps=1.006e+07u w=650000u l=150000u
X1 a_891_413# a_193_47# a_634_159# VNB sky130_fd_pr__nfet_01v8 ad=1.368e+11p pd=1.48e+06u as=1.978e+11p ps=1.99e+06u w=360000u l=150000u
X2 a_561_413# a_27_47# a_466_413# VPB sky130_fd_pr__pfet_01v8_hvt ad=1.533e+11p pd=1.57e+06u as=1.365e+11p ps=1.49e+06u w=420000u l=150000u
X3 VPWR CLK a_27_47# VPB sky130_fd_pr__pfet_01v8_hvt ad=1.32905e+12p pd=1.228e+07u as=1.664e+11p ps=1.8e+06u w=640000u l=150000u
X4 a_381_47# D VPWR VPB sky130_fd_pr__pfet_01v8_hvt ad=1.155e+11p pd=1.39e+06u as=0p ps=0u w=420000u l=150000u
X5 VGND a_634_159# a_592_47# VNB sky130_fd_pr__nfet_01v8 ad=0p pd=0u as=1.392e+11p ps=1.53e+06u w=420000u l=150000u
X6 a_466_413# a_193_47# a_381_47# VPB sky130_fd_pr__pfet_01v8_hvt ad=0p pd=0u as=0p ps=0u w=420000u l=150000u
X7 VPWR a_634_159# a_561_413# VPB sky130_fd_pr__pfet_01v8_hvt ad=0p pd=0u as=0p ps=0u w=420000u l=150000u
X8 a_634_159# a_466_413# VGND VNB sky130_fd_pr__nfet_01v8 ad=0p pd=0u as=0p ps=0u w=640000u l=150000u
X9 Q a_1059_315# VPWR VPB sky130_fd_pr__pfet_01v8_hvt ad=2.6e+11p pd=2.52e+06u as=0p ps=0u w=1e+06u l=150000u
X10 VGND a_1059_315# a_1490_369# VNB sky130_fd_pr__nfet_01v8 ad=0p pd=0u as=1.092e+11p ps=1.36e+06u w=420000u l=150000u
X11 a_634_159# a_466_413# VPWR VPB sky130_fd_pr__pfet_01v8_hvt ad=2.19e+11p pd=2.15e+06u as=0p ps=0u w=750000u l=150000u
X12 a_975_413# a_193_47# a_891_413# VPB sky130_fd_pr__pfet_01v8_hvt ad=1.764e+11p pd=1.68e+06u as=1.134e+11p ps=1.38e+06u w=420000u l=150000u
X13 VGND a_1059_315# a_1017_47# VNB sky130_fd_pr__nfet_01v8 ad=0p pd=0u as=1.32e+11p ps=1.49e+06u w=420000u l=150000u
X14 a_193_47# a_27_47# VGND VNB sky130_fd_pr__nfet_01v8 ad=1.092e+11p pd=1.36e+06u as=0p ps=0u w=420000u l=150000u
X15 a_891_413# a_27_47# a_634_159# VPB sky130_fd_pr__pfet_01v8_hvt ad=0p pd=0u as=0p ps=0u w=420000u l=150000u
X16 a_592_47# a_193_47# a_466_413# VNB sky130_fd_pr__nfet_01v8 ad=0p pd=0u as=1.242e+11p ps=1.41e+06u w=360000u l=150000u
X17 VPWR a_891_413# a_1059_315# VPB sky130_fd_pr__pfet_01v8_hvt ad=0p pd=0u as=2.7e+11p ps=2.54e+06u w=1e+06u l=150000u
X18 a_1017_47# a_27_47# a_891_413# VNB sky130_fd_pr__nfet_01v8 ad=0p pd=0u as=0p ps=0u w=360000u l=150000u
X19 VPWR a_1059_315# a_975_413# VPB sky130_fd_pr__pfet_01v8_hvt ad=0p pd=0u as=0p ps=0u w=420000u l=150000u
X20 a_466_413# a_27_47# a_381_47# VNB sky130_fd_pr__nfet_01v8 ad=0p pd=0u as=1.626e+11p ps=1.66e+06u w=360000u l=150000u
X21 a_193_47# a_27_47# VPWR VPB sky130_fd_pr__pfet_01v8_hvt ad=1.664e+11p pd=1.8e+06u as=0p ps=0u w=640000u l=150000u
X22 VGND a_891_413# a_1059_315# VNB sky130_fd_pr__nfet_01v8 ad=0p pd=0u as=1.69e+11p ps=1.82e+06u w=650000u l=150000u
X23 Q_N a_1490_369# VGND VNB sky130_fd_pr__nfet_01v8 ad=1.69e+11p pd=1.82e+06u as=0p ps=0u w=650000u l=150000u
X24 a_381_47# D VGND VNB sky130_fd_pr__nfet_01v8 ad=0p pd=0u as=0p ps=0u w=420000u l=150000u
X25 Q_N a_1490_369# VPWR VPB sky130_fd_pr__pfet_01v8_hvt ad=2.6e+11p pd=2.52e+06u as=0p ps=0u w=1e+06u l=150000u
X26 VGND CLK a_27_47# VNB sky130_fd_pr__nfet_01v8 ad=0p pd=0u as=1.092e+11p ps=1.36e+06u w=420000u l=150000u
X27 VPWR a_1059_315# a_1490_369# VPB sky130_fd_pr__pfet_01v8_hvt ad=0p pd=0u as=1.664e+11p ps=1.8e+06u w=640000u l=150000u
C0 a_193_47# a_891_413# 0.38fF
C1 a_891_413# VPB 0.08fF
C2 a_634_159# CLK 0.01fF
C3 a_381_47# VGND 0.09fF
C4 VPWR Q_N 0.25fF
C5 VGND Q 0.14fF
C6 a_1059_315# a_1490_369# 0.18fF
C7 a_466_413# a_1059_315# 0.05fF
C8 a_27_47# CLK 0.33fF
C9 a_466_413# a_1490_369# 0.02fF
C10 a_891_413# CLK 0.01fF
C11 a_634_159# D 0.04fF
C12 a_193_47# a_1059_315# 0.13fF
C13 a_1059_315# VPB 0.24fF
C14 a_381_47# Q 0.01fF
C15 VGND Q_N 0.11fF
C16 a_193_47# a_1490_369# 0.03fF
C17 a_1490_369# VPB 0.06fF
C18 a_193_47# a_466_413# 0.20fF
C19 a_466_413# VPB 0.08fF
C20 a_27_47# D 0.17fF
C21 a_891_413# D 0.01fF
C22 a_193_47# VPB 0.21fF
C23 a_634_159# VPWR 0.21fF
C24 a_1059_315# CLK 0.01fF
C25 a_381_47# Q_N 0.01fF
C26 Q Q_N 0.05fF
C27 a_592_47# VGND 0.00fF
C28 a_1490_369# CLK 0.00fF
C29 a_466_413# CLK 0.01fF
C30 a_27_47# VPWR 0.60fF
C31 a_891_413# VPWR 0.20fF
C32 a_193_47# CLK 0.06fF
C33 a_634_159# VGND 0.18fF
C34 VPB CLK 0.14fF
C35 a_1059_315# D 0.02fF
C36 a_1490_369# D 0.01fF
C37 a_1017_47# VGND 0.00fF
C38 a_466_413# D 0.03fF
C39 a_27_47# VGND 0.30fF
C40 a_381_47# a_634_159# 0.03fF
C41 a_975_413# VPWR 0.01fF
C42 a_891_413# VGND 0.18fF
C43 a_634_159# Q 0.02fF
C44 a_193_47# D 0.30fF
C45 VPB D 0.13fF
C46 a_1059_315# VPWR 0.37fF
C47 a_1490_369# VPWR 0.29fF
C48 a_466_413# VPWR 0.31fF
C49 a_381_47# a_27_47# 0.16fF
C50 a_27_47# Q 0.03fF
C51 a_381_47# a_891_413# 0.02fF
C52 a_891_413# Q 0.04fF
C53 a_634_159# Q_N 0.01fF
C54 a_193_47# VPWR 0.37fF
C55 CLK D 0.04fF
C56 VPB VPWR 0.73fF
C57 a_1059_315# VGND 0.22fF
C58 a_1490_369# VGND 0.12fF
C59 a_466_413# VGND 0.15fF
C60 a_27_47# Q_N 0.02fF
C61 a_466_413# a_561_413# 0.01fF
C62 a_891_413# Q_N 0.02fF
C63 a_193_47# VGND 0.24fF
C64 a_381_47# a_1059_315# 0.01fF
C65 CLK VPWR 0.03fF
C66 a_1059_315# Q 0.19fF
C67 a_381_47# a_1490_369# 0.01fF
C68 a_1490_369# Q 0.31fF
C69 a_381_47# a_466_413# 0.09fF
C70 a_466_413# Q 0.02fF
C71 a_381_47# a_193_47# 0.22fF
C72 a_193_47# Q 0.03fF
C73 a_381_47# VPB 0.03fF
C74 CLK VGND 0.04fF
C75 VPB Q 0.02fF
C76 D VPWR 0.03fF
C77 a_1059_315# Q_N 0.03fF
C78 a_1490_369# Q_N 0.14fF
C79 a_27_47# a_634_159# 0.29fF
C80 a_466_413# Q_N 0.01fF
C81 a_634_159# a_891_413# 0.10fF
C82 a_193_47# Q_N 0.02fF
C83 a_381_47# CLK 0.01fF
C84 CLK Q 0.00fF
C85 D VGND 0.05fF
C86 VPB Q_N 0.05fF
C87 a_891_413# a_1017_47# 0.01fF
C88 a_27_47# a_891_413# 0.09fF
C89 a_466_413# a_592_47# 0.01fF
C90 a_634_159# a_1059_315# 0.06fF
C91 a_381_47# D 0.21fF
C92 CLK Q_N 0.00fF
C93 VPWR VGND 0.26fF
C94 D Q 0.00fF
C95 a_634_159# a_1490_369# 0.02fF
C96 a_634_159# a_466_413# 0.36fF
C97 a_561_413# VPWR 0.01fF
C98 a_27_47# a_1059_315# 0.14fF
C99 a_27_47# a_1490_369# 0.03fF
C100 a_891_413# a_975_413# 0.02fF
C101 a_27_47# a_466_413# 0.51fF
C102 a_634_159# a_193_47# 0.21fF
C103 a_634_159# VPB 0.08fF
C104 a_1059_315# a_891_413# 0.44fF
C105 a_381_47# VPWR 0.13fF
C106 VPWR Q 0.24fF
C107 D Q_N 0.00fF
C108 a_1490_369# a_891_413# 0.04fF
C109 a_466_413# a_891_413# 0.04fF
C110 a_27_47# a_193_47# 1.69fF
C111 a_27_47# VPB 0.30fF
C112 Q_N VNB 0.05fF
C113 Q VNB 0.01fF
C114 VGND VNB 0.95fF
C115 VPWR VNB 0.37fF
C116 D VNB 0.12fF
C117 CLK VNB 0.18fF
C118 VPB VNB 1.76fF
C119 a_381_47# VNB 0.03fF
C120 a_1490_369# VNB 0.09fF
C121 a_891_413# VNB 0.12fF
C122 a_1059_315# VNB 0.24fF
C123 a_466_413# VNB 0.11fF
C124 a_634_159# VNB 0.12fF
C125 a_193_47# VNB 0.21fF
C126 a_27_47# VNB 0.31fF
.ends

.subckt sky130_fd_sc_hd__nand2_1 A B VGND VPWR Y VNB VPB a_113_47#
X0 VPWR A Y VPB sky130_fd_pr__pfet_01v8_hvt ad=5.2e+11p pd=5.04e+06u as=2.7e+11p ps=2.54e+06u w=1e+06u l=150000u
X1 Y A a_113_47# VNB sky130_fd_pr__nfet_01v8 ad=1.69e+11p pd=1.82e+06u as=1.755e+11p ps=1.84e+06u w=650000u l=150000u
X2 a_113_47# B VGND VNB sky130_fd_pr__nfet_01v8 ad=0p pd=0u as=1.69e+11p ps=1.82e+06u w=650000u l=150000u
X3 Y B VPWR VPB sky130_fd_pr__pfet_01v8_hvt ad=0p pd=0u as=0p ps=0u w=1e+06u l=150000u
C0 VGND B 0.06fF
C1 VGND a_113_47# 0.01fF
C2 A VPB 0.06fF
C3 VPWR A 0.05fF
C4 VPWR VPB 0.24fF
C5 VGND A 0.02fF
C6 VGND VPWR 0.05fF
C7 Y B 0.05fF
C8 Y a_113_47# 0.01fF
C9 Y A 0.11fF
C10 Y VPB 0.02fF
C11 Y VPWR 0.40fF
C12 Y VGND 0.21fF
C13 A B 0.07fF
C14 VPB B 0.06fF
C15 VPWR B 0.06fF
C16 VGND VNB 0.23fF
C17 Y VNB 0.05fF
C18 VPWR VNB 0.06fF
C19 A VNB 0.10fF
C20 B VNB 0.10fF
C21 VPB VNB 0.34fF
.ends

.subckt sky130_fd_sc_hd__clkinv_1 A VGND VPWR Y VNB VPB
X0 Y A VPWR VPB sky130_fd_pr__pfet_01v8_hvt ad=2.268e+11p pd=2.22e+06u as=4.536e+11p ps=4.44e+06u w=840000u l=150000u
X1 VGND A Y VNB sky130_fd_pr__nfet_01v8 ad=1.197e+11p pd=1.41e+06u as=1.092e+11p ps=1.36e+06u w=420000u l=150000u
X2 VPWR A Y VPB sky130_fd_pr__pfet_01v8_hvt ad=0p pd=0u as=0p ps=0u w=840000u l=150000u
C0 A Y 0.26fF
C1 VPB A 0.14fF
C2 VPB Y 0.00fF
C3 VPWR VGND 0.04fF
C4 A VGND 0.05fF
C5 Y VGND 0.17fF
C6 A VPWR 0.04fF
C7 Y VPWR 0.35fF
C8 VPB VPWR 0.23fF
C9 VGND VNB 0.23fF
C10 Y VNB 0.04fF
C11 VPWR VNB 0.06fF
C12 A VNB 0.24fF
C13 VPB VNB 0.34fF
.ends

.subckt sky130_fd_sc_hd__mux2_1 A0 A1 S VGND VPWR X VNB VPB a_505_21# a_439_47# a_218_47#
+ a_76_199# a_218_374#
X0 VPWR a_505_21# a_535_374# VPB sky130_fd_pr__pfet_01v8_hvt ad=4.553e+11p pd=4.29e+06u as=8.82e+10p ps=1.26e+06u w=420000u l=150000u
X1 a_505_21# S VPWR VPB sky130_fd_pr__pfet_01v8_hvt ad=1.176e+11p pd=1.4e+06u as=0p ps=0u w=420000u l=150000u
X2 a_218_374# S VPWR VPB sky130_fd_pr__pfet_01v8_hvt ad=1.533e+11p pd=1.57e+06u as=0p ps=0u w=420000u l=150000u
X3 VGND a_505_21# a_439_47# VNB sky130_fd_pr__nfet_01v8 ad=5.155e+11p pd=4.31e+06u as=1.386e+11p ps=1.5e+06u w=420000u l=150000u
X4 a_76_199# A0 a_218_374# VPB sky130_fd_pr__pfet_01v8_hvt ad=3.864e+11p pd=2.68e+06u as=0p ps=0u w=420000u l=150000u
X5 a_505_21# S VGND VNB sky130_fd_pr__nfet_01v8 ad=1.092e+11p pd=1.36e+06u as=0p ps=0u w=420000u l=150000u
X6 a_439_47# A0 a_76_199# VNB sky130_fd_pr__nfet_01v8 ad=0p pd=0u as=1.995e+11p ps=1.79e+06u w=420000u l=150000u
X7 a_535_374# A1 a_76_199# VPB sky130_fd_pr__pfet_01v8_hvt ad=0p pd=0u as=0p ps=0u w=420000u l=150000u
X8 a_76_199# A1 a_218_47# VNB sky130_fd_pr__nfet_01v8 ad=0p pd=0u as=1.386e+11p ps=1.5e+06u w=420000u l=150000u
X9 a_218_47# S VGND VNB sky130_fd_pr__nfet_01v8 ad=0p pd=0u as=0p ps=0u w=420000u l=150000u
X10 VPWR a_76_199# X VPB sky130_fd_pr__pfet_01v8_hvt ad=0p pd=0u as=2.6e+11p ps=2.52e+06u w=1e+06u l=150000u
X11 VGND a_76_199# X VNB sky130_fd_pr__nfet_01v8 ad=0p pd=0u as=1.69e+11p ps=1.82e+06u w=650000u l=150000u
C0 a_76_199# X 0.18fF
C1 a_505_21# VPWR 0.12fF
C2 VPB a_505_21# 0.09fF
C3 X VPWR 0.23fF
C4 A0 S 0.09fF
C5 a_76_199# VPWR 0.15fF
C6 VPB X 0.06fF
C7 VPB a_76_199# 0.08fF
C8 A0 VGND 0.08fF
C9 VPB VPWR 0.44fF
C10 a_505_21# S 0.26fF
C11 A0 A1 0.41fF
C12 X S 0.08fF
C13 a_76_199# S 0.54fF
C14 a_218_47# VGND 0.01fF
C15 a_505_21# VGND 0.16fF
C16 a_535_374# S 0.01fF
C17 X VGND 0.09fF
C18 VPWR S 0.64fF
C19 a_76_199# VGND 0.24fF
C20 VPB S 0.24fF
C21 a_505_21# A1 0.16fF
C22 a_439_47# VGND 0.01fF
C23 X A1 0.04fF
C24 VPWR VGND 0.12fF
C25 a_76_199# A1 0.41fF
C26 a_439_47# A1 0.00fF
C27 VPWR A1 0.04fF
C28 a_76_199# a_218_374# 0.00fF
C29 VPB A1 0.06fF
C30 S VGND 0.07fF
C31 S A1 0.25fF
C32 a_505_21# A0 0.08fF
C33 a_218_374# S 0.01fF
C34 A0 X 0.02fF
C35 VGND A1 0.12fF
C36 a_76_199# A0 0.14fF
C37 a_439_47# A0 0.01fF
C38 A0 VPWR 0.01fF
C39 VPB A0 0.08fF
C40 a_505_21# X 0.02fF
C41 a_218_47# a_76_199# 0.01fF
C42 a_76_199# a_505_21# 0.04fF
C43 VGND VNB 0.48fF
C44 A1 VNB 0.09fF
C45 A0 VNB 0.08fF
C46 S VNB 0.17fF
C47 VPWR VNB 0.18fF
C48 X VNB 0.06fF
C49 VPB VNB 0.87fF
C50 a_505_21# VNB 0.15fF
C51 a_76_199# VNB 0.11fF
.ends

.subckt clock clk p2d_b p2d p2_b p2 p1d_b p1d p1_b p1 Ad_b Ad A_b A Bd_b Bd B_b B
+ VDD VSS
Xsky130_fd_sc_hd__clkbuf_16_11 sky130_fd_sc_hd__clkinv_4_8/Y VSS VDD p1d_b sky130_fd_sc_hd__clkbuf_16_11/a_110_47#
+ VSS VDD sky130_fd_sc_hd__clkbuf_16
Xsky130_fd_sc_hd__decap_4_248 VSS VDD VSS VDD sky130_fd_sc_hd__decap_4
Xsky130_fd_sc_hd__decap_4_237 VSS VDD VSS VDD sky130_fd_sc_hd__decap_4
Xsky130_fd_sc_hd__decap_4_226 VSS VDD VSS VDD sky130_fd_sc_hd__decap_4
Xsky130_fd_sc_hd__decap_4_215 VSS VDD VSS VDD sky130_fd_sc_hd__decap_4
Xsky130_fd_sc_hd__decap_4_204 VSS VDD VSS VDD sky130_fd_sc_hd__decap_4
Xsky130_fd_sc_hd__decap_4_90 VSS VDD VSS VDD sky130_fd_sc_hd__decap_4
Xsky130_fd_sc_hd__decap_12_10 VSS VDD VSS VDD sky130_fd_sc_hd__decap_12
Xsky130_fd_sc_hd__decap_12_32 VSS VDD VSS VDD sky130_fd_sc_hd__decap_12
Xsky130_fd_sc_hd__decap_12_21 VSS VDD VSS VDD sky130_fd_sc_hd__decap_12
Xsky130_fd_sc_hd__clkbuf_16_12 sky130_fd_sc_hd__clkinv_4_9/Y VSS VDD p2d_b sky130_fd_sc_hd__clkbuf_16_12/a_110_47#
+ VSS VDD sky130_fd_sc_hd__clkbuf_16
Xsky130_fd_sc_hd__decap_4_249 VSS VDD VSS VDD sky130_fd_sc_hd__decap_4
Xsky130_fd_sc_hd__decap_4_238 VSS VDD VSS VDD sky130_fd_sc_hd__decap_4
Xsky130_fd_sc_hd__decap_4_227 VSS VDD VSS VDD sky130_fd_sc_hd__decap_4
Xsky130_fd_sc_hd__decap_4_216 VSS VDD VSS VDD sky130_fd_sc_hd__decap_4
Xsky130_fd_sc_hd__decap_4_205 VSS VDD VSS VDD sky130_fd_sc_hd__decap_4
Xsky130_fd_sc_hd__decap_4_80 VSS VDD VSS VDD sky130_fd_sc_hd__decap_4
Xsky130_fd_sc_hd__decap_4_91 VSS VDD VSS VDD sky130_fd_sc_hd__decap_4
Xsky130_fd_sc_hd__decap_12_11 VSS VDD VSS VDD sky130_fd_sc_hd__decap_12
Xsky130_fd_sc_hd__decap_12_33 VSS VDD VSS VDD sky130_fd_sc_hd__decap_12
Xsky130_fd_sc_hd__decap_12_22 VSS VDD VSS VDD sky130_fd_sc_hd__decap_12
Xsky130_fd_sc_hd__clkbuf_16_13 sky130_fd_sc_hd__nand2_4_3/Y VSS VDD p2d sky130_fd_sc_hd__clkbuf_16_13/a_110_47#
+ VSS VDD sky130_fd_sc_hd__clkbuf_16
Xsky130_fd_sc_hd__decap_4_239 VSS VDD VSS VDD sky130_fd_sc_hd__decap_4
Xsky130_fd_sc_hd__decap_4_228 VSS VDD VSS VDD sky130_fd_sc_hd__decap_4
Xsky130_fd_sc_hd__decap_4_217 VSS VDD VSS VDD sky130_fd_sc_hd__decap_4
Xsky130_fd_sc_hd__decap_4_206 VSS VDD VSS VDD sky130_fd_sc_hd__decap_4
Xsky130_fd_sc_hd__clkdlybuf4s50_1_0 sky130_fd_sc_hd__clkinv_1_0/Y VSS VDD sky130_fd_sc_hd__clkdlybuf4s50_1_1/A
+ VSS VDD sky130_fd_sc_hd__clkdlybuf4s50_1_0/a_283_47# sky130_fd_sc_hd__clkdlybuf4s50_1_0/a_390_47#
+ sky130_fd_sc_hd__clkdlybuf4s50_1_0/a_27_47# sky130_fd_sc_hd__clkdlybuf4s50_1
Xsky130_fd_sc_hd__decap_4_70 VSS VDD VSS VDD sky130_fd_sc_hd__decap_4
Xsky130_fd_sc_hd__decap_4_81 VSS VDD VSS VDD sky130_fd_sc_hd__decap_4
Xsky130_fd_sc_hd__decap_4_92 VSS VDD VSS VDD sky130_fd_sc_hd__decap_4
Xsky130_fd_sc_hd__decap_12_12 VSS VDD VSS VDD sky130_fd_sc_hd__decap_12
Xsky130_fd_sc_hd__decap_12_34 VSS VDD VSS VDD sky130_fd_sc_hd__decap_12
Xsky130_fd_sc_hd__decap_12_23 VSS VDD VSS VDD sky130_fd_sc_hd__decap_12
Xsky130_fd_sc_hd__clkbuf_16_14 sky130_fd_sc_hd__clkinv_4_10/Y VSS VDD p2_b sky130_fd_sc_hd__clkbuf_16_14/a_110_47#
+ VSS VDD sky130_fd_sc_hd__clkbuf_16
Xsky130_fd_sc_hd__clkinv_4_10 sky130_fd_sc_hd__clkinv_1_3/A VSS VDD sky130_fd_sc_hd__clkinv_4_10/Y
+ VSS VDD sky130_fd_sc_hd__clkinv_4
Xsky130_fd_sc_hd__decap_4_229 VSS VDD VSS VDD sky130_fd_sc_hd__decap_4
Xsky130_fd_sc_hd__decap_4_218 VSS VDD VSS VDD sky130_fd_sc_hd__decap_4
Xsky130_fd_sc_hd__decap_4_207 VSS VDD VSS VDD sky130_fd_sc_hd__decap_4
Xsky130_fd_sc_hd__clkdlybuf4s50_1_1 sky130_fd_sc_hd__clkdlybuf4s50_1_1/A VSS VDD sky130_fd_sc_hd__clkdlybuf4s50_1_2/A
+ VSS VDD sky130_fd_sc_hd__clkdlybuf4s50_1_1/a_283_47# sky130_fd_sc_hd__clkdlybuf4s50_1_1/a_390_47#
+ sky130_fd_sc_hd__clkdlybuf4s50_1_1/a_27_47# sky130_fd_sc_hd__clkdlybuf4s50_1
Xsky130_fd_sc_hd__decap_4_60 VSS VDD VSS VDD sky130_fd_sc_hd__decap_4
Xsky130_fd_sc_hd__decap_4_71 VSS VDD VSS VDD sky130_fd_sc_hd__decap_4
Xsky130_fd_sc_hd__decap_4_82 VSS VDD VSS VDD sky130_fd_sc_hd__decap_4
Xsky130_fd_sc_hd__decap_4_93 VSS VDD VSS VDD sky130_fd_sc_hd__decap_4
Xsky130_fd_sc_hd__decap_12_13 VSS VDD VSS VDD sky130_fd_sc_hd__decap_12
Xsky130_fd_sc_hd__decap_12_35 VSS VDD VSS VDD sky130_fd_sc_hd__decap_12
Xsky130_fd_sc_hd__decap_12_24 VSS VDD VSS VDD sky130_fd_sc_hd__decap_12
Xsky130_fd_sc_hd__clkbuf_16_15 sky130_fd_sc_hd__clkinv_1_3/A VSS VDD p2 sky130_fd_sc_hd__clkbuf_16_15/a_110_47#
+ VSS VDD sky130_fd_sc_hd__clkbuf_16
Xsky130_fd_sc_hd__clkinv_4_11 sky130_fd_sc_hd__nand2_4_3/A VSS VDD sky130_fd_sc_hd__clkinv_1_3/A
+ VSS VDD sky130_fd_sc_hd__clkinv_4
Xsky130_fd_sc_hd__decap_4_219 VSS VDD VSS VDD sky130_fd_sc_hd__decap_4
Xsky130_fd_sc_hd__decap_4_208 VSS VDD VSS VDD sky130_fd_sc_hd__decap_4
Xsky130_fd_sc_hd__clkdlybuf4s50_1_2 sky130_fd_sc_hd__clkdlybuf4s50_1_2/A VSS VDD sky130_fd_sc_hd__clkdlybuf4s50_1_3/A
+ VSS VDD sky130_fd_sc_hd__clkdlybuf4s50_1_2/a_283_47# sky130_fd_sc_hd__clkdlybuf4s50_1_2/a_390_47#
+ sky130_fd_sc_hd__clkdlybuf4s50_1_2/a_27_47# sky130_fd_sc_hd__clkdlybuf4s50_1
Xsky130_fd_sc_hd__decap_4_72 VSS VDD VSS VDD sky130_fd_sc_hd__decap_4
Xsky130_fd_sc_hd__decap_4_61 VSS VDD VSS VDD sky130_fd_sc_hd__decap_4
Xsky130_fd_sc_hd__decap_4_50 VSS VDD VSS VDD sky130_fd_sc_hd__decap_4
Xsky130_fd_sc_hd__decap_4_83 VSS VDD VSS VDD sky130_fd_sc_hd__decap_4
Xsky130_fd_sc_hd__decap_4_94 VSS VDD VSS VDD sky130_fd_sc_hd__decap_4
Xsky130_fd_sc_hd__decap_12_14 VSS VDD VSS VDD sky130_fd_sc_hd__decap_12
Xsky130_fd_sc_hd__decap_12_25 VSS VDD VSS VDD sky130_fd_sc_hd__decap_12
Xsky130_fd_sc_hd__nand2_4_0 sky130_fd_sc_hd__nand2_4_0/A sky130_fd_sc_hd__nand2_4_0/B
+ VSS VDD sky130_fd_sc_hd__nand2_4_0/Y VSS VDD sky130_fd_sc_hd__nand2_4_0/a_27_47#
+ sky130_fd_sc_hd__nand2_4
Xsky130_fd_sc_hd__decap_4_209 VSS VDD VSS VDD sky130_fd_sc_hd__decap_4
Xsky130_fd_sc_hd__clkdlybuf4s50_1_3 sky130_fd_sc_hd__clkdlybuf4s50_1_3/A VSS VDD sky130_fd_sc_hd__nand2_4_0/B
+ VSS VDD sky130_fd_sc_hd__clkdlybuf4s50_1_3/a_283_47# sky130_fd_sc_hd__clkdlybuf4s50_1_3/a_390_47#
+ sky130_fd_sc_hd__clkdlybuf4s50_1_3/a_27_47# sky130_fd_sc_hd__clkdlybuf4s50_1
Xsky130_fd_sc_hd__decap_4_62 VSS VDD VSS VDD sky130_fd_sc_hd__decap_4
Xsky130_fd_sc_hd__decap_4_40 VSS VDD VSS VDD sky130_fd_sc_hd__decap_4
Xsky130_fd_sc_hd__decap_4_51 VSS VDD VSS VDD sky130_fd_sc_hd__decap_4
Xsky130_fd_sc_hd__decap_4_73 VSS VDD VSS VDD sky130_fd_sc_hd__decap_4
Xsky130_fd_sc_hd__decap_4_84 VSS VDD VSS VDD sky130_fd_sc_hd__decap_4
Xsky130_fd_sc_hd__decap_4_95 VSS VDD VSS VDD sky130_fd_sc_hd__decap_4
Xsky130_fd_sc_hd__decap_12_15 VSS VDD VSS VDD sky130_fd_sc_hd__decap_12
Xsky130_fd_sc_hd__decap_12_26 VSS VDD VSS VDD sky130_fd_sc_hd__decap_12
Xsky130_fd_sc_hd__nand2_4_1 sky130_fd_sc_hd__nand2_4_1/A sky130_fd_sc_hd__nand2_4_1/B
+ VSS VDD sky130_fd_sc_hd__nand2_4_1/Y VSS VDD sky130_fd_sc_hd__nand2_4_1/a_27_47#
+ sky130_fd_sc_hd__nand2_4
Xsky130_fd_sc_hd__clkinv_4_0 sky130_fd_sc_hd__nand2_4_0/A VSS VDD sky130_fd_sc_hd__clkinv_4_1/A
+ VSS VDD sky130_fd_sc_hd__clkinv_4
Xsky130_fd_sc_hd__clkdlybuf4s50_1_4 sky130_fd_sc_hd__clkdlybuf4s50_1_5/X VSS VDD sky130_fd_sc_hd__clkdlybuf4s50_1_6/A
+ VSS VDD sky130_fd_sc_hd__clkdlybuf4s50_1_4/a_283_47# sky130_fd_sc_hd__clkdlybuf4s50_1_4/a_390_47#
+ sky130_fd_sc_hd__clkdlybuf4s50_1_4/a_27_47# sky130_fd_sc_hd__clkdlybuf4s50_1
Xsky130_fd_sc_hd__decap_4_52 VSS VDD VSS VDD sky130_fd_sc_hd__decap_4
Xsky130_fd_sc_hd__decap_4_30 VSS VDD VSS VDD sky130_fd_sc_hd__decap_4
Xsky130_fd_sc_hd__decap_4_63 VSS VDD VSS VDD sky130_fd_sc_hd__decap_4
Xsky130_fd_sc_hd__decap_4_41 VSS VDD VSS VDD sky130_fd_sc_hd__decap_4
Xsky130_fd_sc_hd__decap_4_74 VSS VDD VSS VDD sky130_fd_sc_hd__decap_4
Xsky130_fd_sc_hd__decap_4_85 VSS VDD VSS VDD sky130_fd_sc_hd__decap_4
Xsky130_fd_sc_hd__decap_4_96 VSS VDD VSS VDD sky130_fd_sc_hd__decap_4
Xsky130_fd_sc_hd__decap_12_16 VSS VDD VSS VDD sky130_fd_sc_hd__decap_12
Xsky130_fd_sc_hd__decap_12_27 VSS VDD VSS VDD sky130_fd_sc_hd__decap_12
Xsky130_fd_sc_hd__nand2_4_2 sky130_fd_sc_hd__nand2_4_2/A sky130_fd_sc_hd__nand2_4_2/B
+ VSS VDD sky130_fd_sc_hd__nand2_4_2/Y VSS VDD sky130_fd_sc_hd__nand2_4_2/a_27_47#
+ sky130_fd_sc_hd__nand2_4
Xsky130_fd_sc_hd__decap_4_190 VSS VDD VSS VDD sky130_fd_sc_hd__decap_4