* NGSPICE file created from clock_flat.ext - technology: sky130A

.subckt clock_flat clk p2d_b p2d p2_b p2 p1d_b p1d p1_b p1 Ad_b Ad A_b A Bd_b Bd B_b
+ B VDD VSS
X0 VSS a_6941_n1909# sky130_fd_sc_hd__clkdlybuf4s50_1_14/X VSS sky130_fd_pr__nfet_01v8 ad=2.2138e+14p pd=2.39592e+09u as=1.491e+11p ps=1.55e+06u w=420000u l=150000u
X1 VDD a_5653_n4709# sky130_fd_sc_hd__clkdlybuf4s50_1_73/X VDD sky130_fd_pr__pfet_01v8_hvt ad=3.8151e+14p pd=3.51993e+09u as=3.55e+11p ps=2.71e+06u w=1e+06u l=150000u
X2 a_9876_n13591# sky130_fd_sc_hd__clkdlybuf4s50_1_112/X VDD VDD sky130_fd_pr__pfet_01v8_hvt ad=2.7e+11p pd=2.54e+06u as=0p ps=0u w=1e+06u l=150000u
X3 VDD sky130_fd_sc_hd__clkdlybuf4s50_1_29/A a_8162_n2685# VDD sky130_fd_pr__pfet_01v8_hvt ad=0p pd=0u as=2.7e+11p ps=2.54e+06u w=1e+06u l=150000u
X4 VDD a_13765_n5405# A_b VDD sky130_fd_pr__pfet_01v8_hvt ad=0p pd=0u as=2.24e+12p ps=2.048e+07u w=1e+06u l=150000u
X5 a_3436_n8695# sky130_fd_sc_hd__clkdlybuf4s50_1_190/A VDD VDD sky130_fd_pr__pfet_01v8_hvt ad=2.7e+11p pd=2.54e+06u as=0p ps=0u w=1e+06u l=150000u
X6 VSS a_501_n8437# sky130_fd_sc_hd__clkdlybuf4s50_1_187/X VSS sky130_fd_pr__nfet_01v8 ad=0p pd=0u as=1.491e+11p ps=1.55e+06u w=420000u l=150000u
X7 VSS VDD VSS VSS sky130_fd_pr__nfet_01v8 ad=0p pd=0u as=0p ps=0u w=550000u l=4.73e+06u
X8 VDD sky130_fd_sc_hd__nand2_4_1/A sky130_fd_sc_hd__clkinv_4_4/A VDD sky130_fd_pr__pfet_01v8_hvt ad=0p pd=0u as=8.4e+11p ps=7.68e+06u w=1e+06u l=150000u
X9 a_n1738_n6671# a_n2602_n7037# a_n1995_n6925# VDD sky130_fd_pr__pfet_01v8_hvt ad=1.134e+11p pd=1.38e+06u as=2.19e+11p ps=2.15e+06u w=420000u l=150000u
X10 VSS VDD VSS VSS sky130_fd_pr__nfet_01v8 ad=0p pd=0u as=0p ps=0u w=550000u l=1.05e+06u
X11 VSS VDD VSS VSS sky130_fd_pr__nfet_01v8 ad=0p pd=0u as=0p ps=0u w=550000u l=1.05e+06u
X12 VDD a_13765_n2141# Bd VDD sky130_fd_pr__pfet_01v8_hvt ad=0p pd=0u as=2.24e+12p ps=2.048e+07u w=1e+06u l=150000u
X13 VDD a_13765_n13565# p1 VDD sky130_fd_pr__pfet_01v8_hvt ad=0p pd=0u as=2.24e+12p ps=2.048e+07u w=1e+06u l=150000u
X14 p1d a_13765_n12477# VSS VSS sky130_fd_pr__nfet_01v8 ad=9.408e+11p pd=1.12e+07u as=0p ps=0u w=420000u l=150000u
X15 sky130_fd_sc_hd__clkdlybuf4s50_1_82/A a_4661_n5405# VDD VDD sky130_fd_pr__pfet_01v8_hvt ad=3.55e+11p pd=2.71e+06u as=0p ps=0u w=1e+06u l=150000u
X16 VSS VDD VSS VSS sky130_fd_pr__nfet_01v8 ad=0p pd=0u as=0p ps=0u w=550000u l=1.05e+06u
X17 a_13765_n13565# sky130_fd_sc_hd__clkinv_4_7/A VSS VSS sky130_fd_pr__nfet_01v8 ad=2.352e+11p pd=2.8e+06u as=0p ps=0u w=420000u l=150000u
X18 VSS a_13765_n13565# p1 VSS sky130_fd_pr__nfet_01v8 ad=0p pd=0u as=9.408e+11p ps=1.12e+07u w=420000u l=150000u
X19 a_9876_n9783# sky130_fd_sc_hd__clkdlybuf4s50_1_177/X VSS VSS sky130_fd_pr__nfet_01v8 ad=1.134e+11p pd=1.38e+06u as=0p ps=0u w=420000u l=150000u
X20 VSS VDD VSS VSS sky130_fd_pr__nfet_01v8 ad=0p pd=0u as=0p ps=0u w=550000u l=4.73e+06u
X21 a_2148_n11415# sky130_fd_sc_hd__clkdlybuf4s50_1_147/X VDD VDD sky130_fd_pr__pfet_01v8_hvt ad=2.7e+11p pd=2.54e+06u as=0p ps=0u w=1e+06u l=150000u
X22 VSS VDD VSS VSS sky130_fd_pr__nfet_01v8 ad=0p pd=0u as=0p ps=0u w=550000u l=1.05e+06u
X23 a_3077_n1909# a_3176_n2167# VDD VDD sky130_fd_pr__pfet_01v8_hvt ad=2.173e+11p pd=2.17e+06u as=0p ps=0u w=820000u l=500000u
X24 sky130_fd_sc_hd__clkinv_1_3/A sky130_fd_sc_hd__nand2_4_3/A VDD VDD sky130_fd_pr__pfet_01v8_hvt ad=8.4e+11p pd=7.68e+06u as=0p ps=0u w=1e+06u l=150000u
X25 VDD VSS VDD VDD sky130_fd_pr__pfet_01v8_hvt ad=0p pd=0u as=0p ps=0u w=870000u l=1.05e+06u
X26 sky130_fd_sc_hd__clkdlybuf4s50_1_138/A a_7237_n11933# VDD VDD sky130_fd_pr__pfet_01v8_hvt ad=3.55e+11p pd=2.71e+06u as=0p ps=0u w=1e+06u l=150000u
X27 a_9517_n4709# a_9616_n4887# VDD VDD sky130_fd_pr__pfet_01v8_hvt ad=2.173e+11p pd=2.17e+06u as=0p ps=0u w=820000u l=500000u
X28 VSS VDD VSS VSS sky130_fd_pr__nfet_01v8 ad=0p pd=0u as=0p ps=0u w=550000u l=1.05e+06u
X29 VDD a_2148_n3799# a_1888_n3799# VDD sky130_fd_pr__pfet_01v8_hvt ad=0p pd=0u as=2.173e+11p ps=2.17e+06u w=820000u l=500000u
X30 VDD a_13765_n11933# p1d_b VDD sky130_fd_pr__pfet_01v8_hvt ad=0p pd=0u as=2.24e+12p ps=2.048e+07u w=1e+06u l=150000u
X31 VDD a_7130_n10301# a_7237_n10301# VDD sky130_fd_pr__pfet_01v8_hvt ad=0p pd=0u as=2.173e+11p ps=2.17e+06u w=820000u l=500000u
X32 VDD VSS VDD VDD sky130_fd_pr__pfet_01v8_hvt ad=0p pd=0u as=0p ps=0u w=870000u l=1.05e+06u
X33 VSS sky130_fd_sc_hd__clkdlybuf4s50_1_183/A a_6874_n9213# VSS sky130_fd_pr__nfet_01v8 ad=0p pd=0u as=1.134e+11p ps=1.38e+06u w=420000u l=150000u
X34 VDD sky130_fd_sc_hd__clkinv_1_3/A a_13765_n8669# VDD sky130_fd_pr__pfet_01v8_hvt ad=0p pd=0u as=5.6e+11p ps=5.12e+06u w=1e+06u l=150000u
X35 VDD a_8418_n6493# a_8525_n6493# VDD sky130_fd_pr__pfet_01v8_hvt ad=0p pd=0u as=2.173e+11p ps=2.17e+06u w=820000u l=500000u
X36 VDD VSS VDD VDD sky130_fd_pr__pfet_01v8_hvt ad=0p pd=0u as=0p ps=0u w=870000u l=1.05e+06u
X37 VSS VDD VSS VSS sky130_fd_pr__nfet_01v8 ad=0p pd=0u as=0p ps=0u w=550000u l=1.05e+06u
X38 VDD VSS VDD VDD sky130_fd_pr__pfet_01v8_hvt ad=0p pd=0u as=0p ps=0u w=870000u l=1.05e+06u
X39 a_13765_n4861# sky130_fd_sc_hd__clkinv_4_3/A VDD VDD sky130_fd_pr__pfet_01v8_hvt ad=5.6e+11p pd=5.12e+06u as=0p ps=0u w=1e+06u l=150000u
X40 VSS VDD VSS VSS sky130_fd_pr__nfet_01v8 ad=0p pd=0u as=0p ps=0u w=550000u l=1.05e+06u
X41 VDD VSS VDD VDD sky130_fd_pr__pfet_01v8_hvt ad=0p pd=0u as=0p ps=0u w=870000u l=1.05e+06u
X42 p2 a_13765_n8669# VSS VSS sky130_fd_pr__nfet_01v8 ad=9.408e+11p pd=1.12e+07u as=0p ps=0u w=420000u l=150000u
X43 VSS VDD VSS VSS sky130_fd_pr__nfet_01v8 ad=0p pd=0u as=0p ps=0u w=550000u l=1.05e+06u
X44 VDD VSS VDD VDD sky130_fd_pr__pfet_01v8_hvt ad=0p pd=0u as=0p ps=0u w=870000u l=590000u
X45 p2 a_13765_n8669# VSS VSS sky130_fd_pr__nfet_01v8 ad=0p pd=0u as=0p ps=0u w=420000u l=150000u
X46 a_6012_n1079# sky130_fd_sc_hd__clkdlybuf4s50_1_7/X VDD VDD sky130_fd_pr__pfet_01v8_hvt ad=2.7e+11p pd=2.54e+06u as=0p ps=0u w=1e+06u l=150000u
X47 a_13765_n11933# sky130_fd_sc_hd__clkinv_4_8/Y VSS VSS sky130_fd_pr__nfet_01v8 ad=2.352e+11p pd=2.8e+06u as=0p ps=0u w=420000u l=150000u
X48 VDD VSS VDD VDD sky130_fd_pr__pfet_01v8_hvt ad=0p pd=0u as=0p ps=0u w=870000u l=1.05e+06u
X49 VSS VDD VSS VSS sky130_fd_pr__nfet_01v8 ad=0p pd=0u as=0p ps=0u w=550000u l=1.05e+06u
X50 VSS VDD VSS VSS sky130_fd_pr__nfet_01v8 ad=0p pd=0u as=0p ps=0u w=550000u l=2.89e+06u
X51 VSS a_3436_n9783# a_3176_n9783# VSS sky130_fd_pr__nfet_01v8 ad=0p pd=0u as=1.69e+11p ps=1.82e+06u w=650000u l=500000u
X52 VDD VSS VDD VDD sky130_fd_pr__pfet_01v8_hvt ad=0p pd=0u as=0p ps=0u w=870000u l=1.05e+06u
X53 VSS a_13765_n13565# p1 VSS sky130_fd_pr__nfet_01v8 ad=0p pd=0u as=0p ps=0u w=420000u l=150000u
X54 VSS VDD VSS VSS sky130_fd_pr__nfet_01v8 ad=0p pd=0u as=0p ps=0u w=550000u l=1.05e+06u
X55 p1d a_13765_n12477# VDD VDD sky130_fd_pr__pfet_01v8_hvt ad=2.24e+12p pd=2.048e+07u as=0p ps=0u w=1e+06u l=150000u
X56 a_9706_n8125# a_9450_n8125# VSS VSS sky130_fd_pr__nfet_01v8 ad=1.69e+11p pd=1.82e+06u as=0p ps=0u w=650000u l=500000u
X57 a_8418_n1597# a_8162_n1597# VSS VSS sky130_fd_pr__nfet_01v8 ad=1.69e+11p pd=1.82e+06u as=0p ps=0u w=650000u l=500000u
X58 VSS VDD VSS VSS sky130_fd_pr__nfet_01v8 ad=0p pd=0u as=0p ps=0u w=550000u l=4.73e+06u
X59 VDD VSS VDD VDD sky130_fd_pr__pfet_01v8_hvt ad=0p pd=0u as=0p ps=0u w=870000u l=4.73e+06u
X60 a_13765_n5405# sky130_fd_sc_hd__clkinv_4_4/Y VSS VSS sky130_fd_pr__nfet_01v8 ad=2.352e+11p pd=2.8e+06u as=0p ps=0u w=420000u l=150000u
X61 a_13765_n13565# sky130_fd_sc_hd__clkinv_4_7/A VDD VDD sky130_fd_pr__pfet_01v8_hvt ad=5.6e+11p pd=5.12e+06u as=0p ps=0u w=1e+06u l=150000u
X62 sky130_fd_sc_hd__clkdlybuf4s50_1_81/A a_3373_n5405# VSS VSS sky130_fd_pr__nfet_01v8 ad=1.491e+11p pd=1.55e+06u as=0p ps=0u w=420000u l=150000u
X63 a_3077_n3621# a_3176_n3799# VSS VSS sky130_fd_pr__nfet_01v8 ad=1.7225e+11p pd=1.83e+06u as=0p ps=0u w=650000u l=500000u
X64 A_b a_13765_n5405# VSS VSS sky130_fd_pr__nfet_01v8 ad=9.408e+11p pd=1.12e+07u as=0p ps=0u w=420000u l=150000u
X65 VDD a_13765_n13565# p1 VDD sky130_fd_pr__pfet_01v8_hvt ad=0p pd=0u as=0p ps=0u w=1e+06u l=150000u
X66 a_8588_n9783# sky130_fd_sc_hd__clkdlybuf4s50_1_176/X VDD VDD sky130_fd_pr__pfet_01v8_hvt ad=2.7e+11p pd=2.54e+06u as=0p ps=0u w=1e+06u l=150000u
X67 VSS a_13765_n10301# p2d_b VSS sky130_fd_pr__nfet_01v8 ad=0p pd=0u as=9.408e+11p ps=1.12e+07u w=420000u l=150000u
X68 VSS VDD VSS VSS sky130_fd_pr__nfet_01v8 ad=0p pd=0u as=0p ps=0u w=550000u l=4.73e+06u
X69 VSS sky130_fd_sc_hd__clkinv_4_8/A sky130_fd_sc_hd__clkinv_4_8/Y VSS sky130_fd_pr__nfet_01v8 ad=0p pd=0u as=2.352e+11p ps=2.8e+06u w=420000u l=150000u
X70 VSS VDD VSS VSS sky130_fd_pr__nfet_01v8 ad=0p pd=0u as=0p ps=0u w=550000u l=1.05e+06u
X71 VDD VSS VDD VDD sky130_fd_pr__pfet_01v8_hvt ad=0p pd=0u as=0p ps=0u w=870000u l=1.05e+06u
X72 VSS sky130_fd_sc_hd__clkinv_4_8/A a_13765_n12477# VSS sky130_fd_pr__nfet_01v8 ad=0p pd=0u as=2.352e+11p ps=2.8e+06u w=420000u l=150000u
X73 VSS a_13765_n9213# p2_b VSS sky130_fd_pr__nfet_01v8 ad=0p pd=0u as=9.408e+11p ps=1.12e+07u w=420000u l=150000u
X74 VDD a_8229_n8437# sky130_fd_sc_hd__clkdlybuf4s50_1_193/X VDD sky130_fd_pr__pfet_01v8_hvt ad=0p pd=0u as=3.55e+11p ps=2.71e+06u w=1e+06u l=150000u
X75 VDD VSS VDD VDD sky130_fd_pr__pfet_01v8_hvt ad=0p pd=0u as=0p ps=0u w=870000u l=1.05e+06u
X76 VSS a_13765_n13021# p1_b VSS sky130_fd_pr__nfet_01v8 ad=0p pd=0u as=9.408e+11p ps=1.12e+07u w=420000u l=150000u
X77 VSS a_501_n12325# sky130_fd_sc_hd__clkdlybuf4s50_1_132/A VSS sky130_fd_pr__nfet_01v8 ad=0p pd=0u as=1.491e+11p ps=1.55e+06u w=420000u l=150000u
X78 VSS VDD VSS VSS sky130_fd_pr__nfet_01v8 ad=0p pd=0u as=0p ps=0u w=550000u l=1.05e+06u
X79 VDD a_13765_n4317# Ad_b VDD sky130_fd_pr__pfet_01v8_hvt ad=0p pd=0u as=2.24e+12p ps=2.048e+07u w=1e+06u l=150000u
X80 VSS VDD VSS VSS sky130_fd_pr__nfet_01v8 ad=0p pd=0u as=0p ps=0u w=550000u l=1.05e+06u
X81 VSS VDD VSS VSS sky130_fd_pr__nfet_01v8 ad=0p pd=0u as=0p ps=0u w=550000u l=1.05e+06u
X82 VDD sky130_fd_sc_hd__nand2_4_3/A sky130_fd_sc_hd__clkinv_1_3/A VDD sky130_fd_pr__pfet_01v8_hvt ad=0p pd=0u as=0p ps=0u w=1e+06u l=150000u
X83 VDD VSS VDD VDD sky130_fd_pr__pfet_01v8_hvt ad=0p pd=0u as=0p ps=0u w=870000u l=1.05e+06u
X84 VDD a_13765_n9757# p2d VDD sky130_fd_pr__pfet_01v8_hvt ad=0p pd=0u as=2.24e+12p ps=2.048e+07u w=1e+06u l=150000u
X85 VDD VSS VDD VDD sky130_fd_pr__pfet_01v8_hvt ad=0p pd=0u as=0p ps=0u w=870000u l=1.05e+06u
X86 VSS sky130_fd_sc_hd__clkinv_4_4/Y a_13765_n5405# VSS sky130_fd_pr__nfet_01v8 ad=0p pd=0u as=0p ps=0u w=420000u l=150000u
X87 VDD VSS VDD VDD sky130_fd_pr__pfet_01v8_hvt ad=0p pd=0u as=0p ps=0u w=870000u l=2.89e+06u
X88 VDD sky130_fd_sc_hd__nand2_4_3/Y sky130_fd_sc_hd__clkdlybuf4s50_1_195/A VDD sky130_fd_pr__pfet_01v8_hvt ad=0p pd=0u as=8.4e+11p ps=7.68e+06u w=1e+06u l=150000u
X89 VDD VSS VDD VDD sky130_fd_pr__pfet_01v8_hvt ad=0p pd=0u as=0p ps=0u w=870000u l=1.05e+06u
X90 VSS VDD VSS VSS sky130_fd_pr__nfet_01v8 ad=0p pd=0u as=0p ps=0u w=550000u l=4.73e+06u
X91 B a_13765_n1053# VSS VSS sky130_fd_pr__nfet_01v8 ad=9.408e+11p pd=1.12e+07u as=0p ps=0u w=420000u l=150000u
X92 VDD a_13765_n9757# p2d VDD sky130_fd_pr__pfet_01v8_hvt ad=0p pd=0u as=0p ps=0u w=1e+06u l=150000u
X93 VDD a_13765_n13565# p1 VDD sky130_fd_pr__pfet_01v8_hvt ad=0p pd=0u as=0p ps=0u w=1e+06u l=150000u
X94 a_2148_n10871# sky130_fd_sc_hd__clkdlybuf4s50_1_146/X VSS VSS sky130_fd_pr__nfet_01v8 ad=1.134e+11p pd=1.38e+06u as=0p ps=0u w=420000u l=150000u
X95 a_860_n1079# sky130_fd_sc_hd__clkdlybuf4s50_1_41/X VDD VDD sky130_fd_pr__pfet_01v8_hvt ad=2.7e+11p pd=2.54e+06u as=0p ps=0u w=1e+06u l=150000u
X96 a_9876_n2167# sky130_fd_sc_hd__clkdlybuf4s50_1_17/X VSS VSS sky130_fd_pr__nfet_01v8 ad=1.134e+11p pd=1.38e+06u as=0p ps=0u w=420000u l=150000u
X97 p2_b a_13765_n9213# VSS VSS sky130_fd_pr__nfet_01v8 ad=0p pd=0u as=0p ps=0u w=420000u l=150000u
X98 a_11164_n8695# sky130_fd_sc_hd__clkdlybuf4s50_1_195/A VSS VSS sky130_fd_pr__nfet_01v8 ad=1.134e+11p pd=1.38e+06u as=0p ps=0u w=420000u l=150000u
X99 VSS sky130_fd_sc_hd__clkinv_1_5/A sky130_fd_sc_hd__nand2_1_0/B VSS sky130_fd_pr__nfet_01v8 ad=0p pd=0u as=1.092e+11p ps=1.36e+06u w=420000u l=150000u
X100 VDD clk sky130_fd_sc_hd__clkinv_1_6/Y VDD sky130_fd_pr__pfet_01v8_hvt ad=0p pd=0u as=2.268e+11p ps=2.22e+06u w=840000u l=150000u
X101 a_7130_n509# a_6874_n509# VSS VSS sky130_fd_pr__nfet_01v8 ad=1.69e+11p pd=1.82e+06u as=0p ps=0u w=650000u l=500000u
X102 VDD a_13765_n13021# p1_b VDD sky130_fd_pr__pfet_01v8_hvt ad=0p pd=0u as=2.24e+12p ps=2.048e+07u w=1e+06u l=150000u
X103 VDD a_13765_n5949# A VDD sky130_fd_pr__pfet_01v8_hvt ad=0p pd=0u as=2.24e+12p ps=2.048e+07u w=1e+06u l=150000u
X104 VDD a_3436_n13591# a_3176_n13591# VDD sky130_fd_pr__pfet_01v8_hvt ad=0p pd=0u as=2.173e+11p ps=2.17e+06u w=820000u l=500000u
X105 a_5842_n11933# a_5586_n11933# VSS VSS sky130_fd_pr__nfet_01v8 ad=1.69e+11p pd=1.82e+06u as=0p ps=0u w=650000u l=500000u
X106 VDD sky130_fd_sc_hd__clkinv_4_8/A a_13765_n12477# VDD sky130_fd_pr__pfet_01v8_hvt ad=0p pd=0u as=5.6e+11p ps=5.12e+06u w=1e+06u l=150000u
X107 a_3077_n8437# a_3176_n8695# VSS VSS sky130_fd_pr__nfet_01v8 ad=1.7225e+11p pd=1.83e+06u as=0p ps=0u w=650000u l=500000u
X108 a_13765_n4317# sky130_fd_sc_hd__clkinv_4_3/Y VSS VSS sky130_fd_pr__nfet_01v8 ad=2.352e+11p pd=2.8e+06u as=0p ps=0u w=420000u l=150000u
X109 VDD a_9706_n5405# a_9813_n5405# VDD sky130_fd_pr__pfet_01v8_hvt ad=0p pd=0u as=2.173e+11p ps=2.17e+06u w=820000u l=500000u
X110 a_3266_n10301# a_3010_n10301# VDD VDD sky130_fd_pr__pfet_01v8_hvt ad=2.173e+11p pd=2.17e+06u as=0p ps=0u w=820000u l=500000u
X111 VDD a_6012_n8695# a_5752_n8695# VDD sky130_fd_pr__pfet_01v8_hvt ad=0p pd=0u as=2.173e+11p ps=2.17e+06u w=820000u l=500000u
X112 VSS a_7130_n8125# a_7237_n8125# VSS sky130_fd_pr__nfet_01v8 ad=0p pd=0u as=1.7225e+11p ps=1.83e+06u w=650000u l=500000u
X113 a_10805_n5797# a_10904_n5975# VDD VDD sky130_fd_pr__pfet_01v8_hvt ad=2.173e+11p pd=2.17e+06u as=0p ps=0u w=820000u l=500000u
X114 a_6012_n9783# sky130_fd_sc_hd__clkdlybuf4s50_1_175/X VSS VSS sky130_fd_pr__nfet_01v8 ad=1.134e+11p pd=1.38e+06u as=0p ps=0u w=420000u l=150000u
X115 VSS a_13765_n5949# A VSS sky130_fd_pr__nfet_01v8 ad=0p pd=0u as=9.408e+11p ps=1.12e+07u w=420000u l=150000u
X116 VDD VSS VDD VDD sky130_fd_pr__pfet_01v8_hvt ad=0p pd=0u as=0p ps=0u w=870000u l=1.05e+06u
X117 p2d a_13765_n9757# VDD VDD sky130_fd_pr__pfet_01v8_hvt ad=0p pd=0u as=0p ps=0u w=1e+06u l=150000u
X118 VDD a_8588_n8695# a_8328_n8695# VDD sky130_fd_pr__pfet_01v8_hvt ad=0p pd=0u as=2.173e+11p ps=2.17e+06u w=820000u l=500000u
X119 VDD a_501_n12325# sky130_fd_sc_hd__clkdlybuf4s50_1_132/A VDD sky130_fd_pr__pfet_01v8_hvt ad=0p pd=0u as=3.55e+11p ps=2.71e+06u w=1e+06u l=150000u
X120 a_13765_n9213# sky130_fd_sc_hd__clkinv_4_10/Y VDD VDD sky130_fd_pr__pfet_01v8_hvt ad=5.6e+11p pd=5.12e+06u as=0p ps=0u w=1e+06u l=150000u
X121 p1d_b a_13765_n11933# VSS VSS sky130_fd_pr__nfet_01v8 ad=9.408e+11p pd=1.12e+07u as=0p ps=0u w=420000u l=150000u
X122 VDD VSS VDD VDD sky130_fd_pr__pfet_01v8_hvt ad=0p pd=0u as=0p ps=0u w=870000u l=1.05e+06u
X123 p2_b a_13765_n9213# VDD VDD sky130_fd_pr__pfet_01v8_hvt ad=2.24e+12p pd=2.048e+07u as=0p ps=0u w=1e+06u l=150000u
X124 sky130_fd_sc_hd__clkdlybuf4s50_1_181/A a_3373_n9213# VDD VDD sky130_fd_pr__pfet_01v8_hvt ad=3.55e+11p pd=2.71e+06u as=0p ps=0u w=1e+06u l=150000u
X125 VSS VDD VSS VSS sky130_fd_pr__nfet_01v8 ad=0p pd=0u as=0p ps=0u w=550000u l=1.05e+06u
X126 a_13765_n13021# sky130_fd_sc_hd__clkinv_4_7/Y VSS VSS sky130_fd_pr__nfet_01v8 ad=2.352e+11p pd=2.8e+06u as=0p ps=0u w=420000u l=150000u
X127 VDD sky130_fd_sc_hd__clkdlybuf4s50_1_81/A a_4298_n5405# VDD sky130_fd_pr__pfet_01v8_hvt ad=0p pd=0u as=2.7e+11p ps=2.54e+06u w=1e+06u l=150000u
X128 VSS a_n1995_n6925# a_n2037_n7037# VSS sky130_fd_pr__nfet_01v8 ad=0p pd=0u as=1.392e+11p ps=1.53e+06u w=420000u l=150000u
X129 VSS a_5842_n13021# a_5949_n13021# VSS sky130_fd_pr__nfet_01v8 ad=0p pd=0u as=1.7225e+11p ps=1.83e+06u w=650000u l=500000u
X130 VSS a_13765_n13021# p1_b VSS sky130_fd_pr__nfet_01v8 ad=0p pd=0u as=0p ps=0u w=420000u l=150000u
X131 a_5653_n12325# a_5752_n12503# VSS VSS sky130_fd_pr__nfet_01v8 ad=1.7225e+11p pd=1.83e+06u as=0p ps=0u w=650000u l=500000u
X132 VDD VSS VDD VDD sky130_fd_pr__pfet_01v8_hvt ad=0p pd=0u as=0p ps=0u w=870000u l=1.05e+06u
X133 sky130_fd_sc_hd__nand2_4_2/B a_9813_n14109# VDD VDD sky130_fd_pr__pfet_01v8_hvt ad=3.55e+11p pd=2.71e+06u as=0p ps=0u w=1e+06u l=150000u
X134 VSS VDD VSS VSS sky130_fd_pr__nfet_01v8 ad=0p pd=0u as=0p ps=0u w=550000u l=2.89e+06u
X135 a_501_n3621# a_600_n3799# VDD VDD sky130_fd_pr__pfet_01v8_hvt ad=2.173e+11p pd=2.17e+06u as=0p ps=0u w=820000u l=500000u
X136 sky130_fd_sc_hd__clkdlybuf4s50_1_103/A a_8525_n14109# VDD VDD sky130_fd_pr__pfet_01v8_hvt ad=3.55e+11p pd=2.71e+06u as=0p ps=0u w=1e+06u l=150000u
X137 VDD VSS VDD VDD sky130_fd_pr__pfet_01v8_hvt ad=0p pd=0u as=0p ps=0u w=870000u l=1.05e+06u
X138 VDD a_5653_n8437# sky130_fd_sc_hd__clkdlybuf4s50_1_191/X VDD sky130_fd_pr__pfet_01v8_hvt ad=0p pd=0u as=3.55e+11p ps=2.71e+06u w=1e+06u l=150000u
X139 VSS sky130_fd_sc_hd__clkdlybuf4s50_1_167/A a_10738_n10301# VSS sky130_fd_pr__nfet_01v8 ad=0p pd=0u as=1.134e+11p ps=1.38e+06u w=420000u l=150000u
X140 a_4365_n11237# a_4464_n11415# VSS VSS sky130_fd_pr__nfet_01v8 ad=1.7225e+11p pd=1.83e+06u as=0p ps=0u w=650000u l=500000u
X141 VDD a_4554_n10301# a_4661_n10301# VDD sky130_fd_pr__pfet_01v8_hvt ad=0p pd=0u as=2.173e+11p ps=2.17e+06u w=820000u l=500000u
X142 VSS a_3077_n13413# sky130_fd_sc_hd__clkdlybuf4s50_1_107/X VSS sky130_fd_pr__nfet_01v8 ad=0p pd=0u as=1.491e+11p ps=1.55e+06u w=420000u l=150000u
X143 VDD VSS VDD VDD sky130_fd_pr__pfet_01v8_hvt ad=0p pd=0u as=0p ps=0u w=870000u l=4.73e+06u
X144 VSS a_13765_n12477# p1d VSS sky130_fd_pr__nfet_01v8 ad=0p pd=0u as=0p ps=0u w=420000u l=150000u
X145 VDD a_9706_n2685# a_9813_n2685# VDD sky130_fd_pr__pfet_01v8_hvt ad=0p pd=0u as=2.173e+11p ps=2.17e+06u w=820000u l=500000u
X146 a_8418_n5405# a_8162_n5405# VSS VSS sky130_fd_pr__nfet_01v8 ad=1.69e+11p pd=1.82e+06u as=0p ps=0u w=650000u l=500000u
X147 a_8588_n12503# sky130_fd_sc_hd__clkdlybuf4s50_1_130/X VSS VSS sky130_fd_pr__nfet_01v8 ad=1.134e+11p pd=1.38e+06u as=0p ps=0u w=420000u l=150000u
X148 B_b a_13765_n1597# VSS VSS sky130_fd_pr__nfet_01v8 ad=9.408e+11p pd=1.12e+07u as=0p ps=0u w=420000u l=150000u
X149 a_7130_n4317# a_6874_n4317# VDD VDD sky130_fd_pr__pfet_01v8_hvt ad=2.173e+11p pd=2.17e+06u as=0p ps=0u w=820000u l=500000u
X150 VDD a_3436_n12503# a_3176_n12503# VDD sky130_fd_pr__pfet_01v8_hvt ad=0p pd=0u as=2.173e+11p ps=2.17e+06u w=820000u l=500000u
X151 VDD a_690_n10301# a_797_n10301# VDD sky130_fd_pr__pfet_01v8_hvt ad=0p pd=0u as=2.173e+11p ps=2.17e+06u w=820000u l=500000u
X152 a_8229_n821# a_8328_n1079# VDD VDD sky130_fd_pr__pfet_01v8_hvt ad=2.173e+11p pd=2.17e+06u as=0p ps=0u w=820000u l=500000u
X153 VSS sky130_fd_sc_hd__clkdlybuf4s50_1_137/A a_6874_n11933# VSS sky130_fd_pr__nfet_01v8 ad=0p pd=0u as=1.134e+11p ps=1.38e+06u w=420000u l=150000u
X154 sky130_fd_sc_hd__clkdlybuf4s50_1_161/A a_3373_n10301# VSS VSS sky130_fd_pr__nfet_01v8 ad=1.491e+11p pd=1.55e+06u as=0p ps=0u w=420000u l=150000u
X155 VDD sky130_fd_sc_hd__clkinv_4_10/Y a_13765_n9213# VDD sky130_fd_pr__pfet_01v8_hvt ad=0p pd=0u as=0p ps=0u w=1e+06u l=150000u
X156 VSS a_6012_n13591# a_5752_n13591# VSS sky130_fd_pr__nfet_01v8 ad=0p pd=0u as=1.69e+11p ps=1.82e+06u w=650000u l=500000u
X157 sky130_fd_sc_hd__clkdlybuf4s50_1_116/A a_2085_n13021# VSS VSS sky130_fd_pr__nfet_01v8 ad=1.491e+11p pd=1.55e+06u as=0p ps=0u w=420000u l=150000u
X158 a_7300_n11415# sky130_fd_sc_hd__clkdlybuf4s50_1_154/X VSS VSS sky130_fd_pr__nfet_01v8 ad=1.134e+11p pd=1.38e+06u as=0p ps=0u w=420000u l=150000u
X159 sky130_fd_sc_hd__clkdlybuf4s50_1_24/A a_9813_n1597# VSS VSS sky130_fd_pr__nfet_01v8 ad=1.491e+11p pd=1.55e+06u as=0p ps=0u w=420000u l=150000u
X160 VDD a_4554_n5405# a_4661_n5405# VDD sky130_fd_pr__pfet_01v8_hvt ad=0p pd=0u as=2.173e+11p ps=2.17e+06u w=820000u l=500000u
X161 sky130_fd_sc_hd__clkinv_4_7/A sky130_fd_sc_hd__nand2_4_2/A VDD VDD sky130_fd_pr__pfet_01v8_hvt ad=8.4e+11p pd=7.68e+06u as=0p ps=0u w=1e+06u l=150000u
X162 VDD VSS VDD VDD sky130_fd_pr__pfet_01v8_hvt ad=0p pd=0u as=0p ps=0u w=870000u l=2.89e+06u
X163 VSS a_13765_n4861# Ad VSS sky130_fd_pr__nfet_01v8 ad=0p pd=0u as=9.408e+11p ps=1.12e+07u w=420000u l=150000u
X164 VSS a_13765_n13021# p1_b VSS sky130_fd_pr__nfet_01v8 ad=0p pd=0u as=0p ps=0u w=420000u l=150000u
X165 p1d_b a_13765_n11933# VDD VDD sky130_fd_pr__pfet_01v8_hvt ad=0p pd=0u as=0p ps=0u w=1e+06u l=150000u
X166 a_860_n9783# sky130_fd_sc_hd__clkdlybuf4s50_1_170/X VSS VSS sky130_fd_pr__nfet_01v8 ad=1.134e+11p pd=1.38e+06u as=0p ps=0u w=420000u l=150000u
X167 sky130_fd_sc_hd__clkdlybuf4s50_1_133/A a_797_n11933# VSS VSS sky130_fd_pr__nfet_01v8 ad=1.491e+11p pd=1.55e+06u as=0p ps=0u w=420000u l=150000u
X168 a_13765_n8669# sky130_fd_sc_hd__clkinv_1_3/A VDD VDD sky130_fd_pr__pfet_01v8_hvt ad=0p pd=0u as=0p ps=0u w=1e+06u l=150000u
X169 VDD a_13765_n5405# A_b VDD sky130_fd_pr__pfet_01v8_hvt ad=0p pd=0u as=0p ps=0u w=1e+06u l=150000u
X170 sky130_fd_sc_hd__clkdlybuf4s50_1_97/A a_8525_n6493# VDD VDD sky130_fd_pr__pfet_01v8_hvt ad=3.55e+11p pd=2.71e+06u as=0p ps=0u w=1e+06u l=150000u
X171 VSS sky130_fd_sc_hd__clkinv_4_8/Y a_13765_n11933# VSS sky130_fd_pr__nfet_01v8 ad=0p pd=0u as=0p ps=0u w=420000u l=150000u
X172 VSS a_13765_n8669# p2 VSS sky130_fd_pr__nfet_01v8 ad=0p pd=0u as=0p ps=0u w=420000u l=150000u
X173 VDD a_3436_n8695# a_3176_n8695# VDD sky130_fd_pr__pfet_01v8_hvt ad=0p pd=0u as=2.173e+11p ps=2.17e+06u w=820000u l=500000u
X174 VDD sky130_fd_sc_hd__nand2_4_0/Y a_13765_n2141# VDD sky130_fd_pr__pfet_01v8_hvt ad=0p pd=0u as=5.6e+11p ps=5.12e+06u w=1e+06u l=150000u
X175 a_1978_n10301# a_1722_n10301# VSS VSS sky130_fd_pr__nfet_01v8 ad=1.69e+11p pd=1.82e+06u as=0p ps=0u w=650000u l=500000u
X176 sky130_fd_sc_hd__clkdlybuf4s50_1_121/A a_9813_n13021# VDD VDD sky130_fd_pr__pfet_01v8_hvt ad=3.55e+11p pd=2.71e+06u as=0p ps=0u w=1e+06u l=150000u
X177 sky130_fd_sc_hd__clkdlybuf4s50_1_120/A a_8525_n13021# VDD VDD sky130_fd_pr__pfet_01v8_hvt ad=3.55e+11p pd=2.71e+06u as=0p ps=0u w=1e+06u l=150000u
X178 VDD a_3077_n13413# sky130_fd_sc_hd__clkdlybuf4s50_1_107/X VDD sky130_fd_pr__pfet_01v8_hvt ad=0p pd=0u as=3.55e+11p ps=2.71e+06u w=1e+06u l=150000u
X179 p1 a_13765_n13565# VSS VSS sky130_fd_pr__nfet_01v8 ad=0p pd=0u as=0p ps=0u w=420000u l=150000u
X180 a_6012_n2167# sky130_fd_sc_hd__clkdlybuf4s50_1_14/X VSS VSS sky130_fd_pr__nfet_01v8 ad=1.134e+11p pd=1.38e+06u as=0p ps=0u w=420000u l=150000u
X181 a_8418_n14109# a_8162_n14109# VSS VSS sky130_fd_pr__nfet_01v8 ad=1.69e+11p pd=1.82e+06u as=0p ps=0u w=650000u l=500000u
X182 VDD a_13765_n12477# p1d VDD sky130_fd_pr__pfet_01v8_hvt ad=0p pd=0u as=0p ps=0u w=1e+06u l=150000u
X183 a_7300_n8695# sky130_fd_sc_hd__clkdlybuf4s50_1_193/X VSS VSS sky130_fd_pr__nfet_01v8 ad=1.134e+11p pd=1.38e+06u as=0p ps=0u w=420000u l=150000u
X184 a_8588_n12503# sky130_fd_sc_hd__clkdlybuf4s50_1_130/X VDD VDD sky130_fd_pr__pfet_01v8_hvt ad=2.7e+11p pd=2.54e+06u as=0p ps=0u w=1e+06u l=150000u
X185 a_2622_n509# a_2366_n509# VSS VSS sky130_fd_pr__nfet_01v8 ad=1.69e+11p pd=1.82e+06u as=0p ps=0u w=650000u l=500000u
X186 B_b a_13765_n1597# VDD VDD sky130_fd_pr__pfet_01v8_hvt ad=2.24e+12p pd=2.048e+07u as=0p ps=0u w=1e+06u l=150000u
X187 VSS sky130_fd_sc_hd__clkinv_4_7/A sky130_fd_sc_hd__clkdlybuf4s50_1_100/A VSS sky130_fd_pr__nfet_01v8 ad=0p pd=0u as=1.092e+11p ps=1.36e+06u w=420000u l=150000u
X188 sky130_fd_sc_hd__clkinv_4_8/Y sky130_fd_sc_hd__clkinv_4_8/A VSS VSS sky130_fd_pr__nfet_01v8 ad=0p pd=0u as=0p ps=0u w=420000u l=150000u
X189 VDD sky130_fd_sc_hd__clkdlybuf4s50_1_79/A a_1722_n5405# VDD sky130_fd_pr__pfet_01v8_hvt ad=0p pd=0u as=2.7e+11p ps=2.54e+06u w=1e+06u l=150000u
X190 VDD a_4554_n2685# a_4661_n2685# VDD sky130_fd_pr__pfet_01v8_hvt ad=0p pd=0u as=2.173e+11p ps=2.17e+06u w=820000u l=500000u
X191 VDD VSS VDD VDD sky130_fd_pr__pfet_01v8_hvt ad=0p pd=0u as=0p ps=0u w=870000u l=2.89e+06u
X192 a_7300_n11415# sky130_fd_sc_hd__clkdlybuf4s50_1_154/X VDD VDD sky130_fd_pr__pfet_01v8_hvt ad=2.7e+11p pd=2.54e+06u as=0p ps=0u w=1e+06u l=150000u
X193 sky130_fd_sc_hd__clkdlybuf4s50_1_24/A a_9813_n1597# VDD VDD sky130_fd_pr__pfet_01v8_hvt ad=3.55e+11p pd=2.71e+06u as=0p ps=0u w=1e+06u l=150000u
X194 VSS VDD VSS VSS sky130_fd_pr__nfet_01v8 ad=0p pd=0u as=0p ps=0u w=550000u l=2.89e+06u
X195 VDD a_13765_n4861# Ad VDD sky130_fd_pr__pfet_01v8_hvt ad=0p pd=0u as=2.24e+12p ps=2.048e+07u w=1e+06u l=150000u
X196 VSS VDD VSS VSS sky130_fd_pr__nfet_01v8 ad=0p pd=0u as=0p ps=0u w=550000u l=4.73e+06u
X197 VDD VSS VDD VDD sky130_fd_pr__pfet_01v8_hvt ad=0p pd=0u as=0p ps=0u w=870000u l=1.05e+06u
X198 p2 a_13765_n8669# VSS VSS sky130_fd_pr__nfet_01v8 ad=0p pd=0u as=0p ps=0u w=420000u l=150000u
X199 VDD VSS VDD VDD sky130_fd_pr__pfet_01v8_hvt ad=0p pd=0u as=0p ps=0u w=870000u l=2.89e+06u
X200 VSS VDD VSS VSS sky130_fd_pr__nfet_01v8 ad=0p pd=0u as=0p ps=0u w=550000u l=1.05e+06u
X201 VSS VDD VSS VSS sky130_fd_pr__nfet_01v8 ad=0p pd=0u as=0p ps=0u w=550000u l=1.05e+06u
X202 sky130_fd_sc_hd__clkdlybuf4s50_1_183/A a_5949_n9213# VSS VSS sky130_fd_pr__nfet_01v8 ad=1.491e+11p pd=1.55e+06u as=0p ps=0u w=420000u l=150000u
X203 VDD a_690_n4317# a_797_n4317# VDD sky130_fd_pr__pfet_01v8_hvt ad=0p pd=0u as=2.173e+11p ps=2.17e+06u w=820000u l=500000u
X204 a_690_n9213# a_434_n9213# VDD VDD sky130_fd_pr__pfet_01v8_hvt ad=2.173e+11p pd=2.17e+06u as=0p ps=0u w=820000u l=500000u
X205 VDD sky130_fd_sc_hd__clkinv_1_0/Y a_2366_n509# VDD sky130_fd_pr__pfet_01v8_hvt ad=0p pd=0u as=2.7e+11p ps=2.54e+06u w=1e+06u l=150000u
X206 a_4554_n4317# a_4298_n4317# VDD VDD sky130_fd_pr__pfet_01v8_hvt ad=2.173e+11p pd=2.17e+06u as=0p ps=0u w=820000u l=500000u
X207 Ad_b a_13765_n4317# VDD VDD sky130_fd_pr__pfet_01v8_hvt ad=0p pd=0u as=0p ps=0u w=1e+06u l=150000u
X208 VSS a_5842_n4317# a_5949_n4317# VSS sky130_fd_pr__nfet_01v8 ad=0p pd=0u as=1.7225e+11p ps=1.83e+06u w=650000u l=500000u
X209 Ad_b a_13765_n4317# VDD VDD sky130_fd_pr__pfet_01v8_hvt ad=0p pd=0u as=0p ps=0u w=1e+06u l=150000u
X210 VSS a_501_n5797# sky130_fd_sc_hd__clkdlybuf4s50_1_78/A VSS sky130_fd_pr__nfet_01v8 ad=0p pd=0u as=1.491e+11p ps=1.55e+06u w=420000u l=150000u
X211 VDD a_3077_n821# sky130_fd_sc_hd__clkdlybuf4s50_1_10/X VDD sky130_fd_pr__pfet_01v8_hvt ad=0p pd=0u as=3.55e+11p ps=2.71e+06u w=1e+06u l=150000u
X212 a_13765_n5405# sky130_fd_sc_hd__clkinv_4_4/Y VSS VSS sky130_fd_pr__nfet_01v8 ad=0p pd=0u as=0p ps=0u w=420000u l=150000u
X213 a_6006_n7607# a_6101_n7254# VSS VSS sky130_fd_pr__nfet_01v8 ad=1.092e+11p pd=1.36e+06u as=0p ps=0u w=420000u l=150000u
X214 p1 a_13765_n13565# VDD VDD sky130_fd_pr__pfet_01v8_hvt ad=0p pd=0u as=0p ps=0u w=1e+06u l=150000u
X215 VDD VSS VDD VDD sky130_fd_pr__pfet_01v8_hvt ad=0p pd=0u as=0p ps=0u w=870000u l=4.73e+06u
X216 a_5842_n2685# a_5586_n2685# VSS VSS sky130_fd_pr__nfet_01v8 ad=1.69e+11p pd=1.82e+06u as=0p ps=0u w=650000u l=500000u
X217 VSS a_13765_n13565# p1 VSS sky130_fd_pr__nfet_01v8 ad=0p pd=0u as=0p ps=0u w=420000u l=150000u
X218 a_n2436_n7037# a_n2602_n7037# VSS VSS sky130_fd_pr__nfet_01v8 ad=1.092e+11p pd=1.36e+06u as=0p ps=0u w=420000u l=150000u
X219 VSS VDD VSS VSS sky130_fd_pr__nfet_01v8 ad=0p pd=0u as=0p ps=0u w=550000u l=1.05e+06u
X220 VDD VSS VDD VDD sky130_fd_pr__pfet_01v8_hvt ad=0p pd=0u as=0p ps=0u w=870000u l=1.05e+06u
X221 VSS a_8418_n4317# a_8525_n4317# VSS sky130_fd_pr__nfet_01v8 ad=0p pd=0u as=1.7225e+11p ps=1.83e+06u w=650000u l=500000u
X222 VSS VDD VSS VSS sky130_fd_pr__nfet_01v8 ad=0p pd=0u as=0p ps=0u w=550000u l=1.05e+06u
X223 VDD VSS VDD VDD sky130_fd_pr__pfet_01v8_hvt ad=0p pd=0u as=0p ps=0u w=870000u l=2.89e+06u
X224 VDD VSS VDD VDD sky130_fd_pr__pfet_01v8_hvt ad=0p pd=0u as=0p ps=0u w=870000u l=4.73e+06u
X225 VSS sky130_fd_sc_hd__nand2_4_0/B a_10738_n509# VSS sky130_fd_pr__nfet_01v8 ad=0p pd=0u as=8.645e+11p ps=9.16e+06u w=650000u l=150000u
X226 a_860_n2167# sky130_fd_sc_hd__clkdlybuf4s50_1_46/X VSS VSS sky130_fd_pr__nfet_01v8 ad=1.134e+11p pd=1.38e+06u as=0p ps=0u w=420000u l=150000u
X227 VDD VSS VDD VDD sky130_fd_pr__pfet_01v8_hvt ad=0p pd=0u as=0p ps=0u w=870000u l=2.89e+06u
X228 a_2148_n8695# sky130_fd_sc_hd__clkdlybuf4s50_1_190/X VSS VSS sky130_fd_pr__nfet_01v8 ad=1.134e+11p pd=1.38e+06u as=0p ps=0u w=420000u l=150000u
X229 VDD VSS VDD VDD sky130_fd_pr__pfet_01v8_hvt ad=0p pd=0u as=0p ps=0u w=870000u l=1.05e+06u
X230 VDD a_4365_n10613# sky130_fd_sc_hd__clkdlybuf4s50_1_145/X VDD sky130_fd_pr__pfet_01v8_hvt ad=0p pd=0u as=3.55e+11p ps=2.71e+06u w=1e+06u l=150000u
X231 VSS VDD VSS VSS sky130_fd_pr__nfet_01v8 ad=0p pd=0u as=0p ps=0u w=550000u l=1.05e+06u
X232 a_10994_n5405# a_10738_n5405# VDD VDD sky130_fd_pr__pfet_01v8_hvt ad=2.173e+11p pd=2.17e+06u as=0p ps=0u w=820000u l=500000u
X233 sky130_fd_sc_hd__clkdlybuf4s50_1_199/A a_8525_n8125# VDD VDD sky130_fd_pr__pfet_01v8_hvt ad=3.55e+11p pd=2.71e+06u as=0p ps=0u w=1e+06u l=150000u
X234 VSS VDD VSS VSS sky130_fd_pr__nfet_01v8 ad=0p pd=0u as=0p ps=0u w=550000u l=1.05e+06u
X235 A a_13765_n5949# VSS VSS sky130_fd_pr__nfet_01v8 ad=0p pd=0u as=0p ps=0u w=420000u l=150000u
X236 A a_13765_n5949# VSS VSS sky130_fd_pr__nfet_01v8 ad=0p pd=0u as=0p ps=0u w=420000u l=150000u
X237 a_n2436_n7037# a_n2602_n7037# VDD VDD sky130_fd_pr__pfet_01v8_hvt ad=1.664e+11p pd=1.8e+06u as=0p ps=0u w=640000u l=150000u
X238 a_4724_n8695# sky130_fd_sc_hd__clkdlybuf4s50_1_191/X VSS VSS sky130_fd_pr__nfet_01v8 ad=1.134e+11p pd=1.38e+06u as=0p ps=0u w=420000u l=150000u
X239 sky130_fd_sc_hd__clkdlybuf4s50_1_95/A a_7237_n6493# VSS VSS sky130_fd_pr__nfet_01v8 ad=1.491e+11p pd=1.55e+06u as=0p ps=0u w=420000u l=150000u
X240 VSS a_13765_n11933# p1d_b VSS sky130_fd_pr__nfet_01v8 ad=0p pd=0u as=0p ps=0u w=420000u l=150000u
X241 VDD a_13765_n9757# p2d VDD sky130_fd_pr__pfet_01v8_hvt ad=0p pd=0u as=0p ps=0u w=1e+06u l=150000u
X242 VDD a_10994_n9213# a_11101_n9213# VDD sky130_fd_pr__pfet_01v8_hvt ad=0p pd=0u as=2.173e+11p ps=2.17e+06u w=820000u l=500000u
X243 VDD sky130_fd_sc_hd__clkdlybuf4s50_1_66/A a_9450_n4317# VDD sky130_fd_pr__pfet_01v8_hvt ad=0p pd=0u as=2.7e+11p ps=2.54e+06u w=1e+06u l=150000u