* NGSPICE file created from ota_v2.ext - technology: sky130A

.subckt sky130_fd_pr__pfet_01v8_lvt_YVTR7C a_n207_n140# a_n1039_n205# a_29_n205# a_327_n140#
+ a_n683_n205# a_n1275_n140# a_741_n205# a_n29_n140# a_149_n140# a_n1097_n140# a_1097_n205#
+ a_n505_n205# a_n741_n140# a_563_n205# a_861_n140# w_n1311_n241# a_919_n205# a_n327_n205#
+ a_n563_n140# a_385_n205# a_683_n140# a_n919_n140# a_n149_n205# a_1039_n140# a_n385_n140#
+ a_207_n205# a_505_n140# a_n861_n205# VSUBS
X0 a_n919_n140# a_n1039_n205# a_n1097_n140# w_n1311_n241# sky130_fd_pr__pfet_01v8_lvt ad=4.06e+11p pd=3.38e+06u as=4.06e+11p ps=3.38e+06u w=1.4e+06u l=600000u
X1 a_505_n140# a_385_n205# a_327_n140# w_n1311_n241# sky130_fd_pr__pfet_01v8_lvt ad=4.06e+11p pd=3.38e+06u as=4.06e+11p ps=3.38e+06u w=1.4e+06u l=600000u
X2 a_n385_n140# a_n505_n205# a_n563_n140# w_n1311_n241# sky130_fd_pr__pfet_01v8_lvt ad=4.06e+11p pd=3.38e+06u as=4.06e+11p ps=3.38e+06u w=1.4e+06u l=600000u
X3 a_327_n140# a_207_n205# a_149_n140# w_n1311_n241# sky130_fd_pr__pfet_01v8_lvt ad=0p pd=0u as=4.06e+11p ps=3.38e+06u w=1.4e+06u l=600000u
X4 a_149_n140# a_29_n205# a_n29_n140# w_n1311_n241# sky130_fd_pr__pfet_01v8_lvt ad=0p pd=0u as=4.06e+11p ps=3.38e+06u w=1.4e+06u l=600000u
X5 a_861_n140# a_741_n205# a_683_n140# w_n1311_n241# sky130_fd_pr__pfet_01v8_lvt ad=4.06e+11p pd=3.38e+06u as=4.06e+11p ps=3.38e+06u w=1.4e+06u l=600000u
X6 a_n207_n140# a_n327_n205# a_n385_n140# w_n1311_n241# sky130_fd_pr__pfet_01v8_lvt ad=4.06e+11p pd=3.38e+06u as=0p ps=0u w=1.4e+06u l=600000u
X7 a_1097_n205# a_1097_n205# a_1039_n140# w_n1311_n241# sky130_fd_pr__pfet_01v8_lvt ad=4.06e+11p pd=3.38e+06u as=4.06e+11p ps=3.38e+06u w=1.4e+06u l=600000u
X8 a_n741_n140# a_n861_n205# a_n919_n140# w_n1311_n241# sky130_fd_pr__pfet_01v8_lvt ad=4.06e+11p pd=3.38e+06u as=0p ps=0u w=1.4e+06u l=600000u
X9 a_n1097_n140# a_n1275_n140# a_n1275_n140# w_n1311_n241# sky130_fd_pr__pfet_01v8_lvt ad=0p pd=0u as=4.06e+11p ps=3.38e+06u w=1.4e+06u l=600000u
X10 a_683_n140# a_563_n205# a_505_n140# w_n1311_n241# sky130_fd_pr__pfet_01v8_lvt ad=0p pd=0u as=0p ps=0u w=1.4e+06u l=600000u
X11 a_1039_n140# a_919_n205# a_861_n140# w_n1311_n241# sky130_fd_pr__pfet_01v8_lvt ad=0p pd=0u as=0p ps=0u w=1.4e+06u l=600000u
X12 a_n29_n140# a_n149_n205# a_n207_n140# w_n1311_n241# sky130_fd_pr__pfet_01v8_lvt ad=0p pd=0u as=0p ps=0u w=1.4e+06u l=600000u
X13 a_n563_n140# a_n683_n205# a_n741_n140# w_n1311_n241# sky130_fd_pr__pfet_01v8_lvt ad=0p pd=0u as=0p ps=0u w=1.4e+06u l=600000u
C0 a_741_n205# a_n149_n205# 0.01fF
C1 a_327_n140# a_505_n140# 0.06fF
C2 a_149_n140# a_683_n140# 0.02fF
C3 a_327_n140# a_n29_n140# 0.03fF
C4 a_n683_n205# a_563_n205# 0.01fF
C5 a_1097_n205# a_861_n140# 0.03fF
C6 a_n563_n140# a_505_n140# 0.01fF
C7 a_n29_n140# a_n563_n140# 0.02fF
C8 a_n207_n140# a_n385_n140# 0.06fF
C9 a_n683_n205# w_n1311_n241# 0.20fF
C10 a_n741_n140# a_n385_n140# 0.03fF
C11 a_1039_n140# a_n207_n140# 0.01fF
C12 a_741_n205# a_919_n205# 0.10fF
C13 a_n505_n205# a_n149_n205# 0.03fF
C14 a_29_n205# a_563_n205# 0.02fF
C15 a_563_n205# a_n327_n205# 0.01fF
C16 a_29_n205# w_n1311_n241# 0.19fF
C17 a_n1039_n205# a_385_n205# 0.01fF
C18 w_n1311_n241# a_n327_n205# 0.20fF
C19 a_n505_n205# a_919_n205# 0.01fF
C20 w_n1311_n241# a_n385_n140# 0.02fF
C21 w_n1311_n241# a_1039_n140# 0.01fF
C22 a_149_n140# a_861_n140# 0.01fF
C23 a_207_n205# a_n1039_n205# 0.01fF
C24 a_n1275_n140# a_149_n140# 0.01fF
C25 a_29_n205# a_1097_n205# 0.01fF
C26 a_n1097_n140# a_327_n140# 0.01fF
C27 a_1097_n205# a_n327_n205# 0.00fF
C28 a_919_n205# a_n149_n205# 0.01fF
C29 a_327_n140# a_683_n140# 0.03fF
C30 a_n1097_n140# a_n563_n140# 0.02fF
C31 a_1097_n205# a_n385_n140# 0.01fF
C32 a_741_n205# a_n861_n205# 0.01fF
C33 a_1097_n205# a_1039_n140# 0.06fF
C34 a_n563_n140# a_683_n140# 0.01fF
C35 a_n505_n205# a_n861_n205# 0.03fF
C36 a_n1039_n205# a_563_n205# 0.01fF
C37 a_207_n205# a_385_n205# 0.10fF
C38 w_n1311_n241# a_n1039_n205# 0.20fF
C39 a_149_n140# a_n385_n140# 0.02fF
C40 a_327_n140# a_861_n140# 0.02fF
C41 a_149_n140# a_1039_n140# 0.01fF
C42 a_n1275_n140# a_327_n140# 0.01fF
C43 a_n861_n205# a_n149_n205# 0.01fF
C44 a_861_n140# a_n563_n140# 0.01fF
C45 a_n1275_n140# a_n563_n140# 0.01fF
C46 a_385_n205# a_563_n205# 0.10fF
C47 w_n1311_n241# a_385_n205# 0.17fF
C48 a_n919_n140# a_505_n140# 0.01fF
C49 a_n919_n140# a_n29_n140# 0.01fF
C50 a_n741_n140# a_n207_n140# 0.02fF
C51 a_207_n205# a_563_n205# 0.03fF
C52 a_327_n140# a_n385_n140# 0.01fF
C53 a_327_n140# a_1039_n140# 0.01fF
C54 a_207_n205# w_n1311_n241# 0.18fF
C55 a_n563_n140# a_n385_n140# 0.06fF
C56 a_1039_n140# a_n563_n140# 0.01fF
C57 a_1097_n205# a_385_n205# 0.01fF
C58 w_n1311_n241# a_n207_n140# 0.02fF
C59 a_n741_n140# w_n1311_n241# 0.02fF
C60 a_207_n205# a_1097_n205# 0.01fF
C61 a_n29_n140# a_505_n140# 0.02fF
C62 a_n505_n205# a_n1275_n140# 0.01fF
C63 a_n683_n205# a_741_n205# 0.01fF
C64 w_n1311_n241# a_563_n205# 0.16fF
C65 a_1097_n205# a_n207_n140# 0.01fF
C66 a_n919_n140# a_n1097_n140# 0.06fF
C67 a_n919_n140# a_683_n140# 0.01fF
C68 a_n683_n205# a_n505_n205# 0.10fF
C69 a_29_n205# a_741_n205# 0.01fF
C70 a_n1275_n140# a_n149_n205# 0.01fF
C71 a_741_n205# a_n327_n205# 0.01fF
C72 a_1097_n205# a_563_n205# 0.01fF
C73 w_n1311_n241# a_1097_n205# 0.28fF
C74 a_149_n140# a_n207_n140# 0.03fF
C75 a_n741_n140# a_149_n140# 0.01fF
C76 a_29_n205# a_n505_n205# 0.02fF
C77 a_n683_n205# a_n149_n205# 0.02fF
C78 a_n505_n205# a_n327_n205# 0.10fF
C79 a_n1097_n140# a_505_n140# 0.01fF
C80 a_n1097_n140# a_n29_n140# 0.01fF
C81 a_505_n140# a_683_n140# 0.06fF
C82 a_n29_n140# a_683_n140# 0.01fF
C83 a_n919_n140# a_n1275_n140# 0.03fF
C84 a_n683_n205# a_919_n205# 0.01fF
C85 a_29_n205# a_n149_n205# 0.10fF
C86 a_n327_n205# a_n149_n205# 0.10fF
C87 w_n1311_n241# a_149_n140# 0.02fF
C88 a_29_n205# a_919_n205# 0.01fF
C89 a_919_n205# a_n327_n205# 0.01fF
C90 a_n1275_n140# a_n861_n205# 0.02fF
C91 a_1097_n205# a_149_n140# 0.01fF
C92 a_861_n140# a_505_n140# 0.03fF
C93 a_861_n140# a_n29_n140# 0.01fF
C94 a_327_n140# a_n207_n140# 0.02fF
C95 a_n741_n140# a_327_n140# 0.01fF
C96 a_n1275_n140# a_n29_n140# 0.01fF
C97 a_n207_n140# a_n563_n140# 0.03fF
C98 a_n919_n140# a_n385_n140# 0.02fF
C99 a_n741_n140# a_n563_n140# 0.06fF
C100 a_n505_n205# a_n1039_n205# 0.02fF
C101 a_n683_n205# a_n861_n205# 0.10fF
C102 w_n1311_n241# a_327_n140# 0.02fF
C103 a_29_n205# a_n861_n205# 0.01fF
C104 a_n861_n205# a_n327_n205# 0.02fF
C105 a_n1039_n205# a_n149_n205# 0.01fF
C106 w_n1311_n241# a_n563_n140# 0.02fF
C107 a_741_n205# a_385_n205# 0.03fF
C108 a_n385_n140# a_505_n140# 0.01fF
C109 a_n29_n140# a_n385_n140# 0.03fF
C110 a_1097_n205# a_327_n140# 0.01fF
C111 a_1039_n140# a_n29_n140# 0.01fF
C112 a_1039_n140# a_505_n140# 0.02fF
C113 a_861_n140# a_683_n140# 0.06fF
C114 a_n1097_n140# a_n1275_n140# 0.06fF
C115 a_207_n205# a_741_n205# 0.02fF
C116 a_n505_n205# a_385_n205# 0.01fF
C117 a_207_n205# a_n505_n205# 0.01fF
C118 a_385_n205# a_n149_n205# 0.02fF
C119 a_149_n140# a_327_n140# 0.06fF
C120 a_149_n140# a_n563_n140# 0.01fF
C121 a_919_n205# a_385_n205# 0.02fF
C122 a_207_n205# a_n149_n205# 0.03fF
C123 a_741_n205# a_563_n205# 0.10fF
C124 a_n1039_n205# a_n861_n205# 0.10fF
C125 a_n1097_n140# a_n385_n140# 0.01fF
C126 a_741_n205# w_n1311_n241# 0.15fF
C127 a_n385_n140# a_683_n140# 0.01fF
C128 a_1039_n140# a_683_n140# 0.03fF
C129 a_207_n205# a_919_n205# 0.01fF
C130 a_n505_n205# a_563_n205# 0.01fF
C131 a_n505_n205# w_n1311_n241# 0.20fF
C132 a_741_n205# a_1097_n205# 0.02fF
C133 a_n683_n205# a_n1275_n140# 0.01fF
C134 a_563_n205# a_n149_n205# 0.01fF
C135 a_n861_n205# a_385_n205# 0.01fF
C136 w_n1311_n241# a_n149_n205# 0.19fF
C137 a_n505_n205# a_1097_n205# 0.00fF
C138 a_29_n205# a_n1275_n140# 0.00fF
C139 a_861_n140# a_n385_n140# 0.01fF
C140 a_n919_n140# a_n207_n140# 0.01fF
C141 a_n1275_n140# a_n327_n205# 0.01fF
C142 a_n919_n140# a_n741_n140# 0.06fF
C143 a_861_n140# a_1039_n140# 0.06fF
C144 a_327_n140# a_n563_n140# 0.01fF
C145 a_919_n205# a_563_n205# 0.03fF
C146 a_n1275_n140# a_n385_n140# 0.01fF
C147 a_207_n205# a_n861_n205# 0.01fF
C148 a_919_n205# w_n1311_n241# 0.14fF
C149 a_1097_n205# a_n149_n205# 0.00fF
C150 a_29_n205# a_n683_n205# 0.01fF
C151 a_n683_n205# a_n327_n205# 0.03fF
C152 a_n919_n140# w_n1311_n241# 0.02fF
C153 a_919_n205# a_1097_n205# 0.07fF
C154 a_29_n205# a_n327_n205# 0.03fF
C155 a_n207_n140# a_505_n140# 0.01fF
C156 a_n207_n140# a_n29_n140# 0.06fF
C157 a_n741_n140# a_505_n140# 0.01fF
C158 a_n741_n140# a_n29_n140# 0.01fF
C159 a_n861_n205# a_563_n205# 0.01fF
C160 a_1039_n140# a_n385_n140# 0.01fF
C161 w_n1311_n241# a_n861_n205# 0.20fF
C162 a_n1275_n140# a_n1039_n205# 0.07fF
C163 w_n1311_n241# a_n29_n140# 0.02fF
C164 w_n1311_n241# a_505_n140# 0.02fF
C165 a_n683_n205# a_n1039_n205# 0.03fF
C166 a_n919_n140# a_149_n140# 0.01fF
C167 a_1097_n205# a_505_n140# 0.01fF
C168 a_n1097_n140# a_n207_n140# 0.01fF
C169 a_1097_n205# a_n29_n140# 0.01fF
C170 a_n741_n140# a_n1097_n140# 0.03fF
C171 a_n207_n140# a_683_n140# 0.01fF
C172 a_n741_n140# a_683_n140# 0.01fF
C173 a_29_n205# a_n1039_n205# 0.01fF
C174 a_n1039_n205# a_n327_n205# 0.01fF
C175 a_n1275_n140# a_385_n205# 0.00fF
C176 w_n1311_n241# a_n1097_n140# 0.02fF
C177 a_207_n205# a_n1275_n140# 0.00fF
C178 w_n1311_n241# a_683_n140# 0.02fF
C179 a_149_n140# a_505_n140# 0.03fF
C180 a_149_n140# a_n29_n140# 0.06fF
C181 a_n683_n205# a_385_n205# 0.01fF
C182 a_861_n140# a_n207_n140# 0.01fF
C183 a_n741_n140# a_861_n140# 0.01fF
C184 a_n919_n140# a_327_n140# 0.01fF
C185 a_n1275_n140# a_n207_n140# 0.01fF
C186 a_207_n205# a_n683_n205# 0.01fF
C187 a_n741_n140# a_n1275_n140# 0.02fF
C188 a_1097_n205# a_683_n140# 0.02fF
C189 a_n919_n140# a_n563_n140# 0.03fF
C190 a_29_n205# a_385_n205# 0.03fF
C191 a_385_n205# a_n327_n205# 0.01fF
C192 a_n505_n205# a_741_n205# 0.01fF
C193 a_29_n205# a_207_n205# 0.10fF
C194 a_207_n205# a_n327_n205# 0.02fF
C195 w_n1311_n241# a_861_n140# 0.01fF
C196 w_n1311_n241# a_n1275_n140# 0.33fF
C197 a_n1097_n140# a_149_n140# 0.01fF
C198 w_n1311_n241# VSUBS 3.79fF
.ends

.subckt sky130_fd_pr__nfet_01v8_AKSJZW a_n149_n195# a_n207_n140# a_207_n195# a_327_n140#
+ a_n1275_n140# a_n861_n195# a_n29_n140# a_149_n140# a_n1097_n140# a_n1039_n195# a_29_n195#
+ a_n683_n195# a_n741_n140# a_741_n195# a_861_n140# a_1097_n195# a_n563_n140# a_n505_n195#
+ a_563_n195# a_683_n140# a_n919_n140# a_919_n195# a_1039_n140# a_n385_n140# a_n327_n195#
+ a_385_n195# a_505_n140# VSUBS
X0 a_n29_n140# a_n149_n195# a_n207_n140# VSUBS sky130_fd_pr__nfet_01v8 ad=4.06e+11p pd=3.38e+06u as=4.06e+11p ps=3.38e+06u w=1.4e+06u l=600000u
X1 a_n563_n140# a_n683_n195# a_n741_n140# VSUBS sky130_fd_pr__nfet_01v8 ad=4.06e+11p pd=3.38e+06u as=4.06e+11p ps=3.38e+06u w=1.4e+06u l=600000u
X2 a_n919_n140# a_n1039_n195# a_n1097_n140# VSUBS sky130_fd_pr__nfet_01v8 ad=4.06e+11p pd=3.38e+06u as=4.06e+11p ps=3.38e+06u w=1.4e+06u l=600000u
X3 a_505_n140# a_385_n195# a_327_n140# VSUBS sky130_fd_pr__nfet_01v8 ad=4.06e+11p pd=3.38e+06u as=4.06e+11p ps=3.38e+06u w=1.4e+06u l=600000u
X4 a_n385_n140# a_n505_n195# a_n563_n140# VSUBS sky130_fd_pr__nfet_01v8 ad=4.06e+11p pd=3.38e+06u as=0p ps=0u w=1.4e+06u l=600000u
X5 a_327_n140# a_207_n195# a_149_n140# VSUBS sky130_fd_pr__nfet_01v8 ad=0p pd=0u as=4.06e+11p ps=3.38e+06u w=1.4e+06u l=600000u
X6 a_149_n140# a_29_n195# a_n29_n140# VSUBS sky130_fd_pr__nfet_01v8 ad=0p pd=0u as=0p ps=0u w=1.4e+06u l=600000u
X7 a_861_n140# a_741_n195# a_683_n140# VSUBS sky130_fd_pr__nfet_01v8 ad=4.06e+11p pd=3.38e+06u as=4.06e+11p ps=3.38e+06u w=1.4e+06u l=600000u
X8 a_n207_n140# a_n327_n195# a_n385_n140# VSUBS sky130_fd_pr__nfet_01v8 ad=0p pd=0u as=0p ps=0u w=1.4e+06u l=600000u
X9 a_1097_n195# a_1097_n195# a_1039_n140# VSUBS sky130_fd_pr__nfet_01v8 ad=4.06e+11p pd=3.38e+06u as=4.06e+11p ps=3.38e+06u w=1.4e+06u l=600000u
X10 a_n741_n140# a_n861_n195# a_n919_n140# VSUBS sky130_fd_pr__nfet_01v8 ad=0p pd=0u as=0p ps=0u w=1.4e+06u l=600000u
X11 a_n1097_n140# a_n1275_n140# a_n1275_n140# VSUBS sky130_fd_pr__nfet_01v8 ad=0p pd=0u as=4.06e+11p ps=3.38e+06u w=1.4e+06u l=600000u
X12 a_683_n140# a_563_n195# a_505_n140# VSUBS sky130_fd_pr__nfet_01v8 ad=0p pd=0u as=0p ps=0u w=1.4e+06u l=600000u
X13 a_1039_n140# a_919_n195# a_861_n140# VSUBS sky130_fd_pr__nfet_01v8 ad=0p pd=0u as=0p ps=0u w=1.4e+06u l=600000u
C0 a_n861_n195# a_207_n195# 0.01fF
C1 a_n683_n195# a_n1275_n140# 0.01fF
C2 a_385_n195# a_741_n195# 0.03fF
C3 a_149_n140# a_n385_n140# 0.02fF
C4 a_1097_n195# a_n327_n195# 0.00fF
C5 a_1097_n195# a_683_n140# 0.02fF
C6 a_505_n140# a_683_n140# 0.06fF
C7 a_1097_n195# a_919_n195# 0.06fF
C8 a_n919_n140# a_n1097_n140# 0.06fF
C9 a_741_n195# a_207_n195# 0.02fF
C10 a_563_n195# a_29_n195# 0.02fF
C11 a_683_n140# a_n385_n140# 0.01fF
C12 a_385_n195# a_n327_n195# 0.01fF
C13 a_n505_n195# a_n149_n195# 0.03fF
C14 a_385_n195# a_919_n195# 0.02fF
C15 a_n919_n140# a_n1275_n140# 0.03fF
C16 a_n327_n195# a_207_n195# 0.02fF
C17 a_149_n140# a_861_n140# 0.01fF
C18 a_563_n195# a_n861_n195# 0.01fF
C19 a_919_n195# a_207_n195# 0.01fF
C20 a_385_n195# a_n1039_n195# 0.01fF
C21 a_1097_n195# a_327_n140# 0.01fF
C22 a_n149_n195# a_n1275_n140# 0.01fF
C23 a_149_n140# a_n741_n140# 0.01fF
C24 a_505_n140# a_327_n140# 0.06fF
C25 a_n29_n140# a_149_n140# 0.06fF
C26 a_1097_n195# a_n207_n140# 0.01fF
C27 a_n207_n140# a_505_n140# 0.01fF
C28 a_861_n140# a_683_n140# 0.06fF
C29 a_n1039_n195# a_207_n195# 0.01fF
C30 a_741_n195# a_563_n195# 0.10fF
C31 a_n741_n140# a_683_n140# 0.01fF
C32 a_327_n140# a_n385_n140# 0.01fF
C33 a_n29_n140# a_683_n140# 0.01fF
C34 a_n207_n140# a_n385_n140# 0.06fF
C35 a_n861_n195# a_29_n195# 0.01fF
C36 a_n327_n195# a_563_n195# 0.01fF
C37 a_149_n140# a_n563_n140# 0.01fF
C38 a_919_n195# a_563_n195# 0.03fF
C39 a_385_n195# a_n683_n195# 0.01fF
C40 a_741_n195# a_29_n195# 0.01fF
C41 a_n563_n140# a_683_n140# 0.01fF
C42 a_n505_n195# a_n1275_n140# 0.01fF
C43 a_327_n140# a_861_n140# 0.02fF
C44 a_n1039_n195# a_563_n195# 0.01fF
C45 a_n683_n195# a_207_n195# 0.01fF
C46 a_n919_n140# a_505_n140# 0.01fF
C47 a_n207_n140# a_861_n140# 0.01fF
C48 a_327_n140# a_n741_n140# 0.01fF
C49 a_n327_n195# a_29_n195# 0.03fF
C50 a_n29_n140# a_327_n140# 0.03fF
C51 a_n207_n140# a_n741_n140# 0.02fF
C52 a_n1275_n140# a_n1097_n140# 0.06fF
C53 a_n29_n140# a_n207_n140# 0.06fF
C54 a_n919_n140# a_n385_n140# 0.02fF
C55 a_741_n195# a_n861_n195# 0.01fF
C56 a_1097_n195# a_n149_n195# 0.00fF
C57 a_919_n195# a_29_n195# 0.01fF
C58 a_385_n195# a_n149_n195# 0.02fF
C59 a_n327_n195# a_n861_n195# 0.02fF
C60 a_n1039_n195# a_29_n195# 0.01fF
C61 a_327_n140# a_n563_n140# 0.01fF
C62 a_1097_n195# a_1039_n140# 0.06fF
C63 a_1039_n140# a_505_n140# 0.02fF
C64 a_n207_n140# a_n563_n140# 0.03fF
C65 a_563_n195# a_n683_n195# 0.01fF
C66 a_n149_n195# a_207_n195# 0.03fF
C67 a_741_n195# a_n327_n195# 0.01fF
C68 a_1039_n140# a_n385_n140# 0.01fF
C69 a_149_n140# a_683_n140# 0.02fF
C70 a_n1039_n195# a_n861_n195# 0.10fF
C71 a_n919_n140# a_n741_n140# 0.06fF
C72 a_741_n195# a_919_n195# 0.10fF
C73 a_n29_n140# a_n919_n140# 0.01fF
C74 a_1097_n195# a_n505_n195# 0.00fF
C75 a_29_n195# a_n683_n195# 0.01fF
C76 a_n327_n195# a_919_n195# 0.01fF
C77 a_505_n140# a_n1097_n140# 0.01fF
C78 a_385_n195# a_n505_n195# 0.01fF
C79 a_n149_n195# a_563_n195# 0.01fF
C80 a_1039_n140# a_861_n140# 0.06fF
C81 a_n327_n195# a_n1039_n195# 0.01fF
C82 a_n919_n140# a_n563_n140# 0.03fF
C83 a_n385_n140# a_n1097_n140# 0.01fF
C84 a_149_n140# a_327_n140# 0.06fF
C85 a_n505_n195# a_207_n195# 0.01fF
C86 a_n861_n195# a_n683_n195# 0.10fF
C87 a_n29_n140# a_1039_n140# 0.01fF
C88 a_149_n140# a_n207_n140# 0.03fF
C89 a_n385_n140# a_n1275_n140# 0.01fF
C90 a_385_n195# a_n1275_n140# 0.00fF
C91 a_327_n140# a_683_n140# 0.03fF
C92 a_n207_n140# a_683_n140# 0.01fF
C93 a_741_n195# a_n683_n195# 0.01fF
C94 a_n149_n195# a_29_n195# 0.10fF
C95 a_207_n195# a_n1275_n140# 0.00fF
C96 a_1039_n140# a_n563_n140# 0.01fF
C97 a_n327_n195# a_n683_n195# 0.03fF
C98 a_n741_n140# a_n1097_n140# 0.03fF
C99 a_n505_n195# a_563_n195# 0.01fF
C100 a_n29_n140# a_n1097_n140# 0.01fF
C101 a_919_n195# a_n683_n195# 0.01fF
C102 a_n149_n195# a_n861_n195# 0.01fF
C103 a_149_n140# a_n919_n140# 0.01fF
C104 a_n741_n140# a_n1275_n140# 0.02fF
C105 a_n29_n140# a_n1275_n140# 0.01fF
C106 a_n1039_n195# a_n683_n195# 0.03fF
C107 a_n207_n140# a_327_n140# 0.02fF
C108 a_n149_n195# a_741_n195# 0.01fF
C109 a_1097_n195# a_505_n140# 0.01fF
C110 a_n919_n140# a_683_n140# 0.01fF
C111 a_n563_n140# a_n1097_n140# 0.02fF
C112 a_n505_n195# a_29_n195# 0.02fF
C113 a_385_n195# a_1097_n195# 0.01fF
C114 a_1097_n195# a_n385_n140# 0.01fF
C115 a_505_n140# a_n385_n140# 0.01fF
C116 a_n149_n195# a_n327_n195# 0.10fF
C117 a_n563_n140# a_n1275_n140# 0.01fF
C118 a_149_n140# a_1039_n140# 0.01fF
C119 a_n149_n195# a_919_n195# 0.01fF
C120 a_1097_n195# a_207_n195# 0.01fF
C121 a_n505_n195# a_n861_n195# 0.03fF
C122 a_29_n195# a_n1275_n140# 0.00fF
C123 a_1039_n140# a_683_n140# 0.03fF
C124 a_n149_n195# a_n1039_n195# 0.01fF
C125 a_n919_n140# a_327_n140# 0.01fF
C126 a_385_n195# a_207_n195# 0.10fF
C127 a_n207_n140# a_n919_n140# 0.01fF
C128 a_n505_n195# a_741_n195# 0.01fF
C129 a_1097_n195# a_861_n140# 0.03fF
C130 a_505_n140# a_861_n140# 0.03fF
C131 a_n861_n195# a_n1275_n140# 0.02fF
C132 a_505_n140# a_n741_n140# 0.01fF
C133 a_n29_n140# a_1097_n195# 0.01fF
C134 a_n29_n140# a_505_n140# 0.02fF
C135 a_149_n140# a_n1097_n140# 0.01fF
C136 a_861_n140# a_n385_n140# 0.01fF
C137 a_n505_n195# a_n327_n195# 0.10fF
C138 a_n741_n140# a_n385_n140# 0.03fF
C139 a_1097_n195# a_563_n195# 0.01fF
C140 a_n505_n195# a_919_n195# 0.01fF
C141 a_n29_n140# a_n385_n140# 0.03fF
C142 a_149_n140# a_n1275_n140# 0.01fF
C143 a_1039_n140# a_327_n140# 0.01fF
C144 a_n149_n195# a_n683_n195# 0.02fF
C145 a_n207_n140# a_1039_n140# 0.01fF
C146 a_385_n195# a_563_n195# 0.10fF
C147 a_n505_n195# a_n1039_n195# 0.02fF
C148 a_505_n140# a_n563_n140# 0.01fF
C149 a_n327_n195# a_n1275_n140# 0.01fF
C150 a_563_n195# a_207_n195# 0.03fF
C151 a_n563_n140# a_n385_n140# 0.06fF
C152 a_1097_n195# a_29_n195# 0.01fF
C153 a_n741_n140# a_861_n140# 0.01fF
C154 a_n29_n140# a_861_n140# 0.01fF
C155 a_n1039_n195# a_n1275_n140# 0.06fF
C156 a_n29_n140# a_n741_n140# 0.01fF
C157 a_385_n195# a_29_n195# 0.03fF
C158 a_327_n140# a_n1097_n140# 0.01fF
C159 a_n207_n140# a_n1097_n140# 0.01fF
C160 a_n505_n195# a_n683_n195# 0.10fF
C161 a_29_n195# a_207_n195# 0.10fF
C162 a_327_n140# a_n1275_n140# 0.01fF
C163 a_861_n140# a_n563_n140# 0.01fF
C164 a_n207_n140# a_n1275_n140# 0.01fF
C165 a_385_n195# a_n861_n195# 0.01fF
C166 a_n741_n140# a_n563_n140# 0.06fF
C167 a_1097_n195# a_741_n195# 0.02fF
C168 a_149_n140# a_1097_n195# 0.01fF
C169 a_149_n140# a_505_n140# 0.03fF
C170 a_n29_n140# a_n563_n140# 0.02fF
C171 a_1039_n140# VSUBS 0.01fF
C172 a_861_n140# VSUBS 0.01fF
C173 a_683_n140# VSUBS 0.02fF
C174 a_505_n140# VSUBS 0.02fF
C175 a_327_n140# VSUBS 0.02fF
C176 a_149_n140# VSUBS 0.02fF
C177 a_n29_n140# VSUBS 0.02fF
C178 a_n207_n140# VSUBS 0.02fF
C179 a_n385_n140# VSUBS 0.02fF
C180 a_n563_n140# VSUBS 0.02fF
C181 a_n741_n140# VSUBS 0.02fF
C182 a_n919_n140# VSUBS 0.02fF
C183 a_n1097_n140# VSUBS 0.02fF
C184 a_1097_n195# VSUBS 0.31fF
C185 a_919_n195# VSUBS 0.19fF
C186 a_741_n195# VSUBS 0.20fF
C187 a_563_n195# VSUBS 0.21fF
C188 a_385_n195# VSUBS 0.22fF
C189 a_207_n195# VSUBS 0.23fF
C190 a_29_n195# VSUBS 0.23fF
C191 a_n149_n195# VSUBS 0.24fF
C192 a_n327_n195# VSUBS 0.24fF
C193 a_n505_n195# VSUBS 0.24fF
C194 a_n683_n195# VSUBS 0.24fF
C195 a_n861_n195# VSUBS 0.24fF
C196 a_n1039_n195# VSUBS 0.24fF
C197 a_n1275_n140# VSUBS 0.36fF
.ends

.subckt sky130_fd_pr__nfet_01v8_lvt_K7HVMB a_664_n120# a_n608_n120# a_n86_n120# a_72_n208#
+ a_240_n120# a_n184_n120# a_n562_142# a_n510_n120# a_28_n120# a_n298_n120# a_126_n120#
+ a_452_n120# a_n396_n120# a_284_142# a_n138_142# a_550_n120# a_496_n208# a_338_n120#
+ a_n350_n208# a_n820_n120# VSUBS
X0 a_n820_n120# a_n820_n120# a_n820_n120# VSUBS sky130_fd_pr__nfet_01v8_lvt ad=6.96e+11p pd=5.96e+06u as=0p ps=0u w=1.2e+06u l=200000u
X1 a_n510_n120# a_n562_142# a_n608_n120# VSUBS sky130_fd_pr__nfet_01v8_lvt ad=3.48e+11p pd=2.98e+06u as=3.48e+11p ps=2.98e+06u w=1.2e+06u l=200000u
X2 a_664_n120# a_664_n120# a_664_n120# VSUBS sky130_fd_pr__nfet_01v8_lvt ad=6.96e+11p pd=5.96e+06u as=0p ps=0u w=1.2e+06u l=200000u
X3 a_n298_n120# a_n350_n208# a_n396_n120# VSUBS sky130_fd_pr__nfet_01v8_lvt ad=3.48e+11p pd=2.98e+06u as=3.48e+11p ps=2.98e+06u w=1.2e+06u l=200000u
X4 a_550_n120# a_496_n208# a_452_n120# VSUBS sky130_fd_pr__nfet_01v8_lvt ad=3.48e+11p pd=2.98e+06u as=3.48e+11p ps=2.98e+06u w=1.2e+06u l=200000u
X5 a_126_n120# a_72_n208# a_28_n120# VSUBS sky130_fd_pr__nfet_01v8_lvt ad=3.48e+11p pd=2.98e+06u as=3.48e+11p ps=2.98e+06u w=1.2e+06u l=200000u
X6 a_n86_n120# a_n138_142# a_n184_n120# VSUBS sky130_fd_pr__nfet_01v8_lvt ad=3.48e+11p pd=2.98e+06u as=3.48e+11p ps=2.98e+06u w=1.2e+06u l=200000u
X7 a_338_n120# a_284_142# a_240_n120# VSUBS sky130_fd_pr__nfet_01v8_lvt ad=3.48e+11p pd=2.98e+06u as=3.48e+11p ps=2.98e+06u w=1.2e+06u l=200000u
C0 a_452_n120# a_n184_n120# 0.01fF
C1 a_n298_n120# a_n510_n120# 0.04fF
C2 a_n820_n120# a_n86_n120# 0.02fF
C3 a_72_n208# a_664_n120# 0.00fF
C4 a_n396_n120# a_n86_n120# 0.03fF
C5 a_n510_n120# a_n184_n120# 0.02fF
C6 a_n298_n120# a_126_n120# 0.02fF
C7 a_240_n120# a_28_n120# 0.04fF
C8 a_n298_n120# a_n608_n120# 0.03fF
C9 a_n820_n120# a_452_n120# 0.01fF
C10 a_28_n120# a_664_n120# 0.02fF
C11 a_126_n120# a_n184_n120# 0.03fF
C12 a_n396_n120# a_452_n120# 0.01fF
C13 a_n608_n120# a_n184_n120# 0.02fF
C14 a_n298_n120# a_550_n120# 0.01fF
C15 a_496_n208# a_n562_142# 0.00fF
C16 a_n820_n120# a_n510_n120# 0.06fF
C17 a_550_n120# a_n184_n120# 0.01fF
C18 a_n510_n120# a_n396_n120# 0.09fF
C19 a_n562_142# a_n138_142# 0.01fF
C20 a_n820_n120# a_126_n120# 0.02fF
C21 a_452_n120# a_n86_n120# 0.01fF
C22 a_n820_n120# a_n608_n120# 0.13fF
C23 a_126_n120# a_n396_n120# 0.01fF
C24 a_240_n120# a_664_n120# 0.03fF
C25 a_n608_n120# a_n396_n120# 0.04fF
C26 a_n298_n120# a_338_n120# 0.01fF
C27 a_n820_n120# a_550_n120# 0.01fF
C28 a_n510_n120# a_n86_n120# 0.02fF
C29 a_338_n120# a_n184_n120# 0.01fF
C30 a_550_n120# a_n396_n120# 0.01fF
C31 a_496_n208# a_72_n208# 0.01fF
C32 a_n562_142# a_284_142# 0.01fF
C33 a_126_n120# a_n86_n120# 0.04fF
C34 a_n820_n120# a_n562_142# 0.01fF
C35 a_72_n208# a_n138_142# 0.01fF
C36 a_n510_n120# a_452_n120# 0.01fF
C37 a_n608_n120# a_n86_n120# 0.01fF
C38 a_n298_n120# a_28_n120# 0.02fF
C39 a_126_n120# a_452_n120# 0.02fF
C40 a_n820_n120# a_338_n120# 0.01fF
C41 a_550_n120# a_n86_n120# 0.01fF
C42 a_n562_142# a_n350_n208# 0.01fF
C43 a_n608_n120# a_452_n120# 0.01fF
C44 a_n396_n120# a_338_n120# 0.01fF
C45 a_28_n120# a_n184_n120# 0.04fF
C46 a_n510_n120# a_126_n120# 0.01fF
C47 a_550_n120# a_452_n120# 0.11fF
C48 a_72_n208# a_284_142# 0.01fF
C49 a_n510_n120# a_n608_n120# 0.11fF
C50 a_n820_n120# a_72_n208# 0.00fF
C51 a_n510_n120# a_550_n120# 0.01fF
C52 a_n86_n120# a_338_n120# 0.02fF
C53 a_126_n120# a_n608_n120# 0.01fF
C54 a_n820_n120# a_28_n120# 0.02fF
C55 a_496_n208# a_664_n120# 0.01fF
C56 a_n298_n120# a_240_n120# 0.01fF
C57 a_28_n120# a_n396_n120# 0.02fF
C58 a_72_n208# a_n350_n208# 0.01fF
C59 a_126_n120# a_550_n120# 0.02fF
C60 a_n138_142# a_664_n120# 0.00fF
C61 a_n298_n120# a_664_n120# 0.01fF
C62 a_n510_n120# a_n562_142# 0.00fF
C63 a_240_n120# a_n184_n120# 0.02fF
C64 a_452_n120# a_338_n120# 0.09fF
C65 a_550_n120# a_n608_n120# 0.01fF
C66 a_n184_n120# a_664_n120# 0.02fF
C67 a_n510_n120# a_338_n120# 0.01fF
C68 a_28_n120# a_n86_n120# 0.09fF
C69 a_240_n120# a_284_142# 0.00fF
C70 a_n820_n120# a_240_n120# 0.01fF
C71 a_126_n120# a_338_n120# 0.04fF
C72 a_284_142# a_664_n120# 0.01fF
C73 a_240_n120# a_n396_n120# 0.01fF
C74 a_n820_n120# a_664_n120# 0.02fF
C75 a_n608_n120# a_338_n120# 0.01fF
C76 a_28_n120# a_452_n120# 0.02fF
C77 a_n396_n120# a_664_n120# 0.01fF
C78 a_550_n120# a_338_n120# 0.04fF
C79 a_28_n120# a_n510_n120# 0.01fF
C80 a_n350_n208# a_664_n120# 0.00fF
C81 a_240_n120# a_n86_n120# 0.02fF
C82 a_496_n208# a_n138_142# 0.00fF
C83 a_28_n120# a_126_n120# 0.11fF
C84 a_n86_n120# a_664_n120# 0.02fF
C85 a_28_n120# a_n608_n120# 0.01fF
C86 a_240_n120# a_452_n120# 0.04fF
C87 a_28_n120# a_550_n120# 0.01fF
C88 a_452_n120# a_664_n120# 0.06fF
C89 a_n298_n120# a_n184_n120# 0.09fF
C90 a_72_n208# a_n562_142# 0.00fF
C91 a_240_n120# a_n510_n120# 0.01fF
C92 a_496_n208# a_284_142# 0.01fF
C93 a_n820_n120# a_496_n208# 0.00fF
C94 a_n510_n120# a_664_n120# 0.01fF
C95 a_240_n120# a_126_n120# 0.09fF
C96 a_284_142# a_n138_142# 0.01fF
C97 a_240_n120# a_n608_n120# 0.01fF
C98 a_n820_n120# a_n138_142# 0.00fF
C99 a_n820_n120# a_n298_n120# 0.03fF
C100 a_126_n120# a_664_n120# 0.03fF
C101 a_28_n120# a_338_n120# 0.03fF
C102 a_n298_n120# a_n396_n120# 0.11fF
C103 a_n608_n120# a_664_n120# 0.01fF
C104 a_496_n208# a_n350_n208# 0.01fF
C105 a_240_n120# a_550_n120# 0.03fF
C106 a_n820_n120# a_n184_n120# 0.03fF
C107 a_n396_n120# a_n184_n120# 0.04fF
C108 a_550_n120# a_664_n120# 0.13fF
C109 a_n350_n208# a_n138_142# 0.01fF
C110 a_n298_n120# a_n350_n208# 0.00fF
C111 a_28_n120# a_72_n208# 0.00fF
C112 a_n820_n120# a_284_142# 0.00fF
C113 a_n86_n120# a_n138_142# 0.00fF
C114 a_n298_n120# a_n86_n120# 0.04fF
C115 a_n562_142# a_664_n120# 0.00fF
C116 a_496_n208# a_452_n120# 0.00fF
C117 a_240_n120# a_338_n120# 0.11fF
C118 a_n86_n120# a_n184_n120# 0.11fF
C119 a_n820_n120# a_n396_n120# 0.04fF
C120 a_n298_n120# a_452_n120# 0.01fF
C121 a_338_n120# a_664_n120# 0.04fF
C122 a_284_142# a_n350_n208# 0.00fF
C123 a_n820_n120# a_n350_n208# 0.01fF
C124 a_550_n120# VSUBS 0.01fF
C125 a_452_n120# VSUBS 0.01fF
C126 a_338_n120# VSUBS 0.01fF
C127 a_240_n120# VSUBS 0.01fF
C128 a_126_n120# VSUBS 0.02fF
C129 a_28_n120# VSUBS 0.01fF
C130 a_n86_n120# VSUBS 0.01fF
C131 a_n184_n120# VSUBS 0.02fF
C132 a_n298_n120# VSUBS 0.02fF
C133 a_n396_n120# VSUBS 0.02fF
C134 a_n510_n120# VSUBS 0.02fF
C135 a_n608_n120# VSUBS 0.02fF
C136 a_496_n208# VSUBS 0.11fF
C137 a_664_n120# VSUBS 0.17fF
C138 a_72_n208# VSUBS 0.10fF
C139 a_284_142# VSUBS 0.10fF
C140 a_n350_n208# VSUBS 0.12fF
C141 a_n138_142# VSUBS 0.11fF
C142 a_n820_n120# VSUBS 0.20fF
C143 a_n562_142# VSUBS 0.14fF
.ends

.subckt sky130_fd_pr__nfet_01v8_S6RQQZ a_n149_n194# a_n207_n140# a_207_n194# a_1453_n194#
+ a_n1217_n194# a_327_n140# a_n1275_n140# a_n861_n194# a_n29_n140# a_n1039_n194# a_149_n140#
+ a_n1097_n140# a_1275_n194# a_29_n194# a_n683_n194# a_1395_n140# a_n741_n140# a_741_n194#
+ a_861_n140# a_1097_n194# a_n505_n194# a_n563_n140# a_563_n194# a_1217_n140# a_683_n140#
+ a_n919_n140# a_919_n194# a_n1631_n140# a_n327_n194# a_1039_n140# a_n385_n140# a_385_n194#
+ a_n1395_n194# a_505_n140# a_n1453_n140# VSUBS
X0 a_n29_n140# a_n149_n194# a_n207_n140# VSUBS sky130_fd_pr__nfet_01v8 ad=4.06e+11p pd=3.38e+06u as=4.06e+11p ps=3.38e+06u w=1.4e+06u l=600000u
X1 a_n563_n140# a_n683_n194# a_n741_n140# VSUBS sky130_fd_pr__nfet_01v8 ad=4.06e+11p pd=3.38e+06u as=4.06e+11p ps=3.38e+06u w=1.4e+06u l=600000u
X2 a_n919_n140# a_n1039_n194# a_n1097_n140# VSUBS sky130_fd_pr__nfet_01v8 ad=4.06e+11p pd=3.38e+06u as=4.06e+11p ps=3.38e+06u w=1.4e+06u l=600000u
X3 a_505_n140# a_385_n194# a_327_n140# VSUBS sky130_fd_pr__nfet_01v8 ad=4.06e+11p pd=3.38e+06u as=4.06e+11p ps=3.38e+06u w=1.4e+06u l=600000u
X4 a_n385_n140# a_n505_n194# a_n563_n140# VSUBS sky130_fd_pr__nfet_01v8 ad=4.06e+11p pd=3.38e+06u as=0p ps=0u w=1.4e+06u l=600000u
X5 a_1395_n140# a_1275_n194# a_1217_n140# VSUBS sky130_fd_pr__nfet_01v8 ad=4.06e+11p pd=3.38e+06u as=4.06e+11p ps=3.38e+06u w=1.4e+06u l=600000u
X6 a_n1453_n140# a_n1631_n140# a_n1631_n140# VSUBS sky130_fd_pr__nfet_01v8 ad=4.06e+11p pd=3.38e+06u as=4.06e+11p ps=3.38e+06u w=1.4e+06u l=600000u
X7 a_327_n140# a_207_n194# a_149_n140# VSUBS sky130_fd_pr__nfet_01v8 ad=0p pd=0u as=4.06e+11p ps=3.38e+06u w=1.4e+06u l=600000u
X8 a_149_n140# a_29_n194# a_n29_n140# VSUBS sky130_fd_pr__nfet_01v8 ad=0p pd=0u as=0p ps=0u w=1.4e+06u l=600000u
X9 a_861_n140# a_741_n194# a_683_n140# VSUBS sky130_fd_pr__nfet_01v8 ad=4.06e+11p pd=3.38e+06u as=4.06e+11p ps=3.38e+06u w=1.4e+06u l=600000u
X10 a_n207_n140# a_n327_n194# a_n385_n140# VSUBS sky130_fd_pr__nfet_01v8 ad=0p pd=0u as=0p ps=0u w=1.4e+06u l=600000u
X11 a_1217_n140# a_1097_n194# a_1039_n140# VSUBS sky130_fd_pr__nfet_01v8 ad=0p pd=0u as=4.06e+11p ps=3.38e+06u w=1.4e+06u l=600000u
X12 a_n1275_n140# a_n1395_n194# a_n1453_n140# VSUBS sky130_fd_pr__nfet_01v8 ad=4.06e+11p pd=3.38e+06u as=0p ps=0u w=1.4e+06u l=600000u
X13 a_n741_n140# a_n861_n194# a_n919_n140# VSUBS sky130_fd_pr__nfet_01v8 ad=0p pd=0u as=0p ps=0u w=1.4e+06u l=600000u
X14 a_n1097_n140# a_n1217_n194# a_n1275_n140# VSUBS sky130_fd_pr__nfet_01v8 ad=0p pd=0u as=0p ps=0u w=1.4e+06u l=600000u
X15 a_683_n140# a_563_n194# a_505_n140# VSUBS sky130_fd_pr__nfet_01v8 ad=0p pd=0u as=0p ps=0u w=1.4e+06u l=600000u
X16 a_1039_n140# a_919_n194# a_861_n140# VSUBS sky130_fd_pr__nfet_01v8 ad=0p pd=0u as=0p ps=0u w=1.4e+06u l=600000u
X17 a_1453_n194# a_1453_n194# a_1395_n140# VSUBS sky130_fd_pr__nfet_01v8 ad=4.06e+11p pd=3.38e+06u as=0p ps=0u w=1.4e+06u l=600000u
C0 a_n1217_n194# a_n149_n194# 0.01fF
C1 a_n683_n194# a_n1631_n140# 0.01fF
C2 a_n1631_n140# a_n919_n140# 0.01fF
C3 a_1275_n194# a_n327_n194# 0.01fF
C4 a_207_n194# a_1453_n194# 0.00fF
C5 a_1395_n140# a_505_n140# 0.01fF
C6 a_29_n194# a_385_n194# 0.03fF
C7 a_741_n194# a_n683_n194# 0.01fF
C8 a_n385_n140# a_n1453_n140# 0.01fF
C9 a_683_n140# a_1039_n140# 0.03fF
C10 a_n563_n140# a_n919_n140# 0.03fF
C11 a_683_n140# a_149_n140# 0.02fF
C12 a_861_n140# a_505_n140# 0.03fF
C13 a_741_n194# a_563_n194# 0.10fF
C14 a_n207_n140# a_n29_n140# 0.06fF
C15 a_1097_n194# a_919_n194# 0.10fF
C16 a_385_n194# a_n149_n194# 0.02fF
C17 a_207_n194# a_n327_n194# 0.02fF
C18 a_29_n194# a_n683_n194# 0.01fF
C19 a_n919_n140# a_n1453_n140# 0.02fF
C20 a_n861_n194# a_n505_n194# 0.03fF
C21 a_n1395_n194# a_n1631_n140# 0.06fF
C22 a_505_n140# a_1217_n140# 0.01fF
C23 a_n385_n140# a_861_n140# 0.01fF
C24 a_29_n194# a_563_n194# 0.02fF
C25 a_n505_n194# a_919_n194# 0.01fF
C26 a_n683_n194# a_n149_n194# 0.02fF
C27 a_n385_n140# a_1217_n140# 0.01fF
C28 a_207_n194# a_n1217_n194# 0.01fF
C29 a_29_n194# a_n1395_n194# 0.01fF
C30 a_563_n194# a_n149_n194# 0.01fF
C31 a_327_n140# a_1039_n140# 0.01fF
C32 a_n1631_n140# a_n1097_n140# 0.02fF
C33 a_385_n194# a_1275_n194# 0.01fF
C34 a_149_n140# a_327_n140# 0.06fF
C35 a_n563_n140# a_n1097_n140# 0.02fF
C36 a_n741_n140# a_n1631_n140# 0.01fF
C37 a_n1275_n140# a_n385_n140# 0.01fF
C38 a_n741_n140# a_n563_n140# 0.06fF
C39 a_n1395_n194# a_n149_n194# 0.01fF
C40 a_385_n194# a_207_n194# 0.10fF