* NGSPICE file created from ota_v2.ext - technology: sky130A

.subckt sky130_fd_pr__pfet_01v8_lvt_YVTR7C a_n207_n140# a_n1039_n205# a_29_n205# a_327_n140#
+ a_n683_n205# a_n1275_n140# a_741_n205# a_n29_n140# a_149_n140# a_n1097_n140# a_1097_n205#
+ a_n505_n205# a_n741_n140# a_563_n205# a_861_n140# w_n1311_n241# a_919_n205# a_n327_n205#
+ a_n563_n140# a_385_n205# a_683_n140# a_n919_n140# a_n149_n205# a_1039_n140# a_n385_n140#
+ a_207_n205# a_505_n140# a_n861_n205#
X0 a_n919_n140# a_n1039_n205# a_n1097_n140# w_n1311_n241# sky130_fd_pr__pfet_01v8_lvt ad=4.06e+11p pd=3.38e+06u as=4.06e+11p ps=3.38e+06u w=1.4e+06u l=600000u
X1 a_505_n140# a_385_n205# a_327_n140# w_n1311_n241# sky130_fd_pr__pfet_01v8_lvt ad=4.06e+11p pd=3.38e+06u as=4.06e+11p ps=3.38e+06u w=1.4e+06u l=600000u
X2 a_n385_n140# a_n505_n205# a_n563_n140# w_n1311_n241# sky130_fd_pr__pfet_01v8_lvt ad=4.06e+11p pd=3.38e+06u as=4.06e+11p ps=3.38e+06u w=1.4e+06u l=600000u
X3 a_327_n140# a_207_n205# a_149_n140# w_n1311_n241# sky130_fd_pr__pfet_01v8_lvt ad=0p pd=0u as=4.06e+11p ps=3.38e+06u w=1.4e+06u l=600000u
X4 a_149_n140# a_29_n205# a_n29_n140# w_n1311_n241# sky130_fd_pr__pfet_01v8_lvt ad=0p pd=0u as=4.06e+11p ps=3.38e+06u w=1.4e+06u l=600000u
X5 a_861_n140# a_741_n205# a_683_n140# w_n1311_n241# sky130_fd_pr__pfet_01v8_lvt ad=4.06e+11p pd=3.38e+06u as=4.06e+11p ps=3.38e+06u w=1.4e+06u l=600000u
X6 a_n207_n140# a_n327_n205# a_n385_n140# w_n1311_n241# sky130_fd_pr__pfet_01v8_lvt ad=4.06e+11p pd=3.38e+06u as=0p ps=0u w=1.4e+06u l=600000u
X7 a_1097_n205# a_1097_n205# a_1039_n140# w_n1311_n241# sky130_fd_pr__pfet_01v8_lvt ad=4.06e+11p pd=3.38e+06u as=4.06e+11p ps=3.38e+06u w=1.4e+06u l=600000u
X8 a_n741_n140# a_n861_n205# a_n919_n140# w_n1311_n241# sky130_fd_pr__pfet_01v8_lvt ad=4.06e+11p pd=3.38e+06u as=0p ps=0u w=1.4e+06u l=600000u
X9 a_n1097_n140# a_n1275_n140# a_n1275_n140# w_n1311_n241# sky130_fd_pr__pfet_01v8_lvt ad=0p pd=0u as=4.06e+11p ps=3.38e+06u w=1.4e+06u l=600000u
X10 a_683_n140# a_563_n205# a_505_n140# w_n1311_n241# sky130_fd_pr__pfet_01v8_lvt ad=0p pd=0u as=0p ps=0u w=1.4e+06u l=600000u
X11 a_1039_n140# a_919_n205# a_861_n140# w_n1311_n241# sky130_fd_pr__pfet_01v8_lvt ad=0p pd=0u as=0p ps=0u w=1.4e+06u l=600000u
X12 a_n29_n140# a_n149_n205# a_n207_n140# w_n1311_n241# sky130_fd_pr__pfet_01v8_lvt ad=0p pd=0u as=0p ps=0u w=1.4e+06u l=600000u
X13 a_n563_n140# a_n683_n205# a_n741_n140# w_n1311_n241# sky130_fd_pr__pfet_01v8_lvt ad=0p pd=0u as=0p ps=0u w=1.4e+06u l=600000u
.ends

.subckt sky130_fd_pr__nfet_01v8_AKSJZW a_n149_n195# a_n207_n140# a_207_n195# a_327_n140#
+ a_n1275_n140# a_n861_n195# a_n29_n140# a_149_n140# a_n1097_n140# a_n1039_n195# a_29_n195#
+ a_n683_n195# a_n741_n140# a_741_n195# a_861_n140# a_1097_n195# a_n563_n140# a_n505_n195#
+ a_563_n195# a_683_n140# a_n919_n140# a_919_n195# a_1039_n140# a_n385_n140# a_n327_n195#
+ a_385_n195# a_505_n140# VSUBS
X0 a_n29_n140# a_n149_n195# a_n207_n140# VSUBS sky130_fd_pr__nfet_01v8 ad=4.06e+11p pd=3.38e+06u as=4.06e+11p ps=3.38e+06u w=1.4e+06u l=600000u
X1 a_n563_n140# a_n683_n195# a_n741_n140# VSUBS sky130_fd_pr__nfet_01v8 ad=4.06e+11p pd=3.38e+06u as=4.06e+11p ps=3.38e+06u w=1.4e+06u l=600000u
X2 a_n919_n140# a_n1039_n195# a_n1097_n140# VSUBS sky130_fd_pr__nfet_01v8 ad=4.06e+11p pd=3.38e+06u as=4.06e+11p ps=3.38e+06u w=1.4e+06u l=600000u
X3 a_505_n140# a_385_n195# a_327_n140# VSUBS sky130_fd_pr__nfet_01v8 ad=4.06e+11p pd=3.38e+06u as=4.06e+11p ps=3.38e+06u w=1.4e+06u l=600000u
X4 a_n385_n140# a_n505_n195# a_n563_n140# VSUBS sky130_fd_pr__nfet_01v8 ad=4.06e+11p pd=3.38e+06u as=0p ps=0u w=1.4e+06u l=600000u
X5 a_327_n140# a_207_n195# a_149_n140# VSUBS sky130_fd_pr__nfet_01v8 ad=0p pd=0u as=4.06e+11p ps=3.38e+06u w=1.4e+06u l=600000u
X6 a_149_n140# a_29_n195# a_n29_n140# VSUBS sky130_fd_pr__nfet_01v8 ad=0p pd=0u as=0p ps=0u w=1.4e+06u l=600000u
X7 a_861_n140# a_741_n195# a_683_n140# VSUBS sky130_fd_pr__nfet_01v8 ad=4.06e+11p pd=3.38e+06u as=4.06e+11p ps=3.38e+06u w=1.4e+06u l=600000u
X8 a_n207_n140# a_n327_n195# a_n385_n140# VSUBS sky130_fd_pr__nfet_01v8 ad=0p pd=0u as=0p ps=0u w=1.4e+06u l=600000u
X9 a_1097_n195# a_1097_n195# a_1039_n140# VSUBS sky130_fd_pr__nfet_01v8 ad=4.06e+11p pd=3.38e+06u as=4.06e+11p ps=3.38e+06u w=1.4e+06u l=600000u
X10 a_n741_n140# a_n861_n195# a_n919_n140# VSUBS sky130_fd_pr__nfet_01v8 ad=0p pd=0u as=0p ps=0u w=1.4e+06u l=600000u
X11 a_n1097_n140# a_n1275_n140# a_n1275_n140# VSUBS sky130_fd_pr__nfet_01v8 ad=0p pd=0u as=4.06e+11p ps=3.38e+06u w=1.4e+06u l=600000u
X12 a_683_n140# a_563_n195# a_505_n140# VSUBS sky130_fd_pr__nfet_01v8 ad=0p pd=0u as=0p ps=0u w=1.4e+06u l=600000u
X13 a_1039_n140# a_919_n195# a_861_n140# VSUBS sky130_fd_pr__nfet_01v8 ad=0p pd=0u as=0p ps=0u w=1.4e+06u l=600000u
.ends

.subckt sky130_fd_pr__nfet_01v8_lvt_K7HVMB a_664_n120# a_n608_n120# a_n86_n120# a_72_n208#
+ a_240_n120# a_n184_n120# a_n562_142# a_n510_n120# a_28_n120# a_n298_n120# a_126_n120#
+ a_452_n120# a_n396_n120# a_284_142# a_n138_142# a_550_n120# a_496_n208# a_338_n120#
+ a_n350_n208# a_n820_n120# VSUBS
X0 a_n820_n120# a_n820_n120# a_n820_n120# VSUBS sky130_fd_pr__nfet_01v8_lvt ad=6.96e+11p pd=5.96e+06u as=0p ps=0u w=1.2e+06u l=200000u
X1 a_n510_n120# a_n562_142# a_n608_n120# VSUBS sky130_fd_pr__nfet_01v8_lvt ad=3.48e+11p pd=2.98e+06u as=3.48e+11p ps=2.98e+06u w=1.2e+06u l=200000u
X2 a_664_n120# a_664_n120# a_664_n120# VSUBS sky130_fd_pr__nfet_01v8_lvt ad=6.96e+11p pd=5.96e+06u as=0p ps=0u w=1.2e+06u l=200000u
X3 a_n298_n120# a_n350_n208# a_n396_n120# VSUBS sky130_fd_pr__nfet_01v8_lvt ad=3.48e+11p pd=2.98e+06u as=3.48e+11p ps=2.98e+06u w=1.2e+06u l=200000u
X4 a_550_n120# a_496_n208# a_452_n120# VSUBS sky130_fd_pr__nfet_01v8_lvt ad=3.48e+11p pd=2.98e+06u as=3.48e+11p ps=2.98e+06u w=1.2e+06u l=200000u
X5 a_126_n120# a_72_n208# a_28_n120# VSUBS sky130_fd_pr__nfet_01v8_lvt ad=3.48e+11p pd=2.98e+06u as=3.48e+11p ps=2.98e+06u w=1.2e+06u l=200000u
X6 a_n86_n120# a_n138_142# a_n184_n120# VSUBS sky130_fd_pr__nfet_01v8_lvt ad=3.48e+11p pd=2.98e+06u as=3.48e+11p ps=2.98e+06u w=1.2e+06u l=200000u
X7 a_338_n120# a_284_142# a_240_n120# VSUBS sky130_fd_pr__nfet_01v8_lvt ad=3.48e+11p pd=2.98e+06u as=3.48e+11p ps=2.98e+06u w=1.2e+06u l=200000u
.ends

.subckt sky130_fd_pr__nfet_01v8_S6RQQZ a_n149_n194# a_n207_n140# a_207_n194# a_1453_n194#
+ a_n1217_n194# a_327_n140# a_n1275_n140# a_n861_n194# a_n29_n140# a_n1039_n194# a_149_n140#
+ a_n1097_n140# a_1275_n194# a_29_n194# a_n683_n194# a_1395_n140# a_n741_n140# a_741_n194#
+ a_861_n140# a_1097_n194# a_n505_n194# a_n563_n140# a_563_n194# a_1217_n140# a_683_n140#
+ a_n919_n140# a_919_n194# a_n1631_n140# a_n327_n194# a_1039_n140# a_n385_n140# a_385_n194#
+ a_n1395_n194# a_505_n140# a_n1453_n140# VSUBS
X0 a_n29_n140# a_n149_n194# a_n207_n140# VSUBS sky130_fd_pr__nfet_01v8 ad=4.06e+11p pd=3.38e+06u as=4.06e+11p ps=3.38e+06u w=1.4e+06u l=600000u
X1 a_n563_n140# a_n683_n194# a_n741_n140# VSUBS sky130_fd_pr__nfet_01v8 ad=4.06e+11p pd=3.38e+06u as=4.06e+11p ps=3.38e+06u w=1.4e+06u l=600000u
X2 a_n919_n140# a_n1039_n194# a_n1097_n140# VSUBS sky130_fd_pr__nfet_01v8 ad=4.06e+11p pd=3.38e+06u as=4.06e+11p ps=3.38e+06u w=1.4e+06u l=600000u
X3 a_505_n140# a_385_n194# a_327_n140# VSUBS sky130_fd_pr__nfet_01v8 ad=4.06e+11p pd=3.38e+06u as=4.06e+11p ps=3.38e+06u w=1.4e+06u l=600000u
X4 a_n385_n140# a_n505_n194# a_n563_n140# VSUBS sky130_fd_pr__nfet_01v8 ad=4.06e+11p pd=3.38e+06u as=0p ps=0u w=1.4e+06u l=600000u
X5 a_1395_n140# a_1275_n194# a_1217_n140# VSUBS sky130_fd_pr__nfet_01v8 ad=4.06e+11p pd=3.38e+06u as=4.06e+11p ps=3.38e+06u w=1.4e+06u l=600000u
X6 a_n1453_n140# a_n1631_n140# a_n1631_n140# VSUBS sky130_fd_pr__nfet_01v8 ad=4.06e+11p pd=3.38e+06u as=4.06e+11p ps=3.38e+06u w=1.4e+06u l=600000u
X7 a_327_n140# a_207_n194# a_149_n140# VSUBS sky130_fd_pr__nfet_01v8 ad=0p pd=0u as=4.06e+11p ps=3.38e+06u w=1.4e+06u l=600000u
X8 a_149_n140# a_29_n194# a_n29_n140# VSUBS sky130_fd_pr__nfet_01v8 ad=0p pd=0u as=0p ps=0u w=1.4e+06u l=600000u
X9 a_861_n140# a_741_n194# a_683_n140# VSUBS sky130_fd_pr__nfet_01v8 ad=4.06e+11p pd=3.38e+06u as=4.06e+11p ps=3.38e+06u w=1.4e+06u l=600000u
X10 a_n207_n140# a_n327_n194# a_n385_n140# VSUBS sky130_fd_pr__nfet_01v8 ad=0p pd=0u as=0p ps=0u w=1.4e+06u l=600000u
X11 a_1217_n140# a_1097_n194# a_1039_n140# VSUBS sky130_fd_pr__nfet_01v8 ad=0p pd=0u as=4.06e+11p ps=3.38e+06u w=1.4e+06u l=600000u
X12 a_n1275_n140# a_n1395_n194# a_n1453_n140# VSUBS sky130_fd_pr__nfet_01v8 ad=4.06e+11p pd=3.38e+06u as=0p ps=0u w=1.4e+06u l=600000u
X13 a_n741_n140# a_n861_n194# a_n919_n140# VSUBS sky130_fd_pr__nfet_01v8 ad=0p pd=0u as=0p ps=0u w=1.4e+06u l=600000u
X14 a_n1097_n140# a_n1217_n194# a_n1275_n140# VSUBS sky130_fd_pr__nfet_01v8 ad=0p pd=0u as=0p ps=0u w=1.4e+06u l=600000u
X15 a_683_n140# a_563_n194# a_505_n140# VSUBS sky130_fd_pr__nfet_01v8 ad=0p pd=0u as=0p ps=0u w=1.4e+06u l=600000u
X16 a_1039_n140# a_919_n194# a_861_n140# VSUBS sky130_fd_pr__nfet_01v8 ad=0p pd=0u as=0p ps=0u w=1.4e+06u l=600000u
X17 a_1453_n194# a_1453_n194# a_1395_n140# VSUBS sky130_fd_pr__nfet_01v8 ad=4.06e+11p pd=3.38e+06u as=0p ps=0u w=1.4e+06u l=600000u
.ends

.subckt sky130_fd_pr__nfet_01v8_6RUDQZ a_n594_n195# a_n1008_n140# a_n652_n140# a_652_n195#
+ a_772_n140# a_n60_n195# a_n474_n140# a_n416_n195# a_474_n195# a_594_n140# a_n296_n140#
+ a_n238_n195# a_60_n140# a_296_n195# a_416_n140# a_n118_n140# a_118_n195# a_238_n140#
+ a_n772_n195# a_n830_n140# a_830_n195# VSUBS
X0 a_772_n140# a_652_n195# a_594_n140# VSUBS sky130_fd_pr__nfet_01v8 ad=4.06e+11p pd=3.38e+06u as=4.06e+11p ps=3.38e+06u w=1.4e+06u l=600000u
X1 a_n118_n140# a_n238_n195# a_n296_n140# VSUBS sky130_fd_pr__nfet_01v8 ad=4.06e+11p pd=3.38e+06u as=4.06e+11p ps=3.38e+06u w=1.4e+06u l=600000u
X2 a_n652_n140# a_n772_n195# a_n830_n140# VSUBS sky130_fd_pr__nfet_01v8 ad=4.06e+11p pd=3.38e+06u as=4.06e+11p ps=3.38e+06u w=1.4e+06u l=600000u
X3 a_594_n140# a_474_n195# a_416_n140# VSUBS sky130_fd_pr__nfet_01v8 ad=0p pd=0u as=4.06e+11p ps=3.38e+06u w=1.4e+06u l=600000u
X4 a_60_n140# a_n60_n195# a_n118_n140# VSUBS sky130_fd_pr__nfet_01v8 ad=4.06e+11p pd=3.38e+06u as=0p ps=0u w=1.4e+06u l=600000u
X5 a_830_n195# a_830_n195# a_772_n140# VSUBS sky130_fd_pr__nfet_01v8 ad=4.06e+11p pd=3.38e+06u as=0p ps=0u w=1.4e+06u l=600000u
X6 a_n830_n140# a_n1008_n140# a_n1008_n140# VSUBS sky130_fd_pr__nfet_01v8 ad=0p pd=0u as=4.06e+11p ps=3.38e+06u w=1.4e+06u l=600000u
X7 a_n474_n140# a_n594_n195# a_n652_n140# VSUBS sky130_fd_pr__nfet_01v8 ad=4.06e+11p pd=3.38e+06u as=0p ps=0u w=1.4e+06u l=600000u
X8 a_416_n140# a_296_n195# a_238_n140# VSUBS sky130_fd_pr__nfet_01v8 ad=0p pd=0u as=4.06e+11p ps=3.38e+06u w=1.4e+06u l=600000u
X9 a_n296_n140# a_n416_n195# a_n474_n140# VSUBS sky130_fd_pr__nfet_01v8 ad=0p pd=0u as=0p ps=0u w=1.4e+06u l=600000u
X10 a_238_n140# a_118_n195# a_60_n140# VSUBS sky130_fd_pr__nfet_01v8 ad=0p pd=0u as=0p ps=0u w=1.4e+06u l=600000u
.ends

.subckt sky130_fd_pr__nfet_01v8_SD55Q9 a_352_607# a_644_607# a_174_607# a_60_607#
+ a_232_553# a_n232_n389# a_466_607# a_n524_n389# a_524_553# a_n410_n887# a_n702_n887#
+ a_n994_n887# a_644_n389# a_352_n389# a_60_n389# a_524_55# a_n60_55# a_n352_55# a_n232_n887#
+ a_n524_n887# a_174_n389# a_n352_n445# a_466_n389# a_n60_n445# a_n644_n445# a_644_n887#
+ a_352_n887# a_n118_n389# a_60_n887# a_174_n887# a_n352_n943# a_466_n887# a_n118_n887#
+ a_n60_n943# a_n644_n943# a_232_n445# a_n118_109# a_n410_109# a_758_n887# a_524_n445#
+ a_n232_109# a_n702_109# a_n644_55# a_n524_109# a_352_109# a_232_55# a_n352_553#
+ a_644_109# a_174_109# a_60_109# a_n644_553# a_n60_553# a_466_109# a_n410_607# a_524_n943#
+ a_232_n943# a_n410_n389# a_n118_607# a_n702_n389# a_n232_607# a_n702_607# a_n524_607#
+ VSUBS
X0 a_60_n389# a_n60_n445# a_n118_n389# VSUBS sky130_fd_pr__nfet_01v8 ad=4.06e+11p pd=3.38e+06u as=4.06e+11p ps=3.38e+06u w=1.4e+06u l=600000u
X1 a_644_n887# a_524_n943# a_466_n887# VSUBS sky130_fd_pr__nfet_01v8 ad=4.06e+11p pd=3.38e+06u as=4.06e+11p ps=3.38e+06u w=1.4e+06u l=600000u
X2 a_758_n887# a_758_n887# a_758_n887# VSUBS sky130_fd_pr__nfet_01v8 ad=3.248e+12p pd=2.704e+07u as=0p ps=0u w=1.4e+06u l=600000u
X3 a_758_n887# a_758_n887# a_758_n887# VSUBS sky130_fd_pr__nfet_01v8 ad=0p pd=0u as=0p ps=0u w=1.4e+06u l=600000u
X4 a_644_607# a_524_553# a_466_607# VSUBS sky130_fd_pr__nfet_01v8 ad=4.06e+11p pd=3.38e+06u as=4.06e+11p ps=3.38e+06u w=1.4e+06u l=600000u
X5 a_n994_n887# a_n994_n887# a_n994_n887# VSUBS sky130_fd_pr__nfet_01v8 ad=3.248e+12p pd=2.704e+07u as=0p ps=0u w=1.4e+06u l=600000u
X6 a_n524_607# a_n644_553# a_n702_607# VSUBS sky130_fd_pr__nfet_01v8 ad=4.06e+11p pd=3.38e+06u as=4.06e+11p ps=3.38e+06u w=1.4e+06u l=600000u
X7 a_352_n389# a_232_n445# a_174_n389# VSUBS sky130_fd_pr__nfet_01v8 ad=4.06e+11p pd=3.38e+06u as=4.06e+11p ps=3.38e+06u w=1.4e+06u l=600000u
X8 a_644_n389# a_524_n445# a_466_n389# VSUBS sky130_fd_pr__nfet_01v8 ad=4.06e+11p pd=3.38e+06u as=4.06e+11p ps=3.38e+06u w=1.4e+06u l=600000u
X9 a_n232_n887# a_n352_n943# a_n410_n887# VSUBS sky130_fd_pr__nfet_01v8 ad=4.06e+11p pd=3.38e+06u as=4.06e+11p ps=3.38e+06u w=1.4e+06u l=600000u
X10 a_758_n887# a_758_n887# a_758_n887# VSUBS sky130_fd_pr__nfet_01v8 ad=0p pd=0u as=0p ps=0u w=1.4e+06u l=600000u
X11 a_644_109# a_524_55# a_466_109# VSUBS sky130_fd_pr__nfet_01v8 ad=4.06e+11p pd=3.38e+06u as=4.06e+11p ps=3.38e+06u w=1.4e+06u l=600000u
X12 a_n524_n887# a_n644_n943# a_n702_n887# VSUBS sky130_fd_pr__nfet_01v8 ad=4.06e+11p pd=3.38e+06u as=4.06e+11p ps=3.38e+06u w=1.4e+06u l=600000u
X13 a_352_607# a_232_553# a_174_607# VSUBS sky130_fd_pr__nfet_01v8 ad=4.06e+11p pd=3.38e+06u as=4.06e+11p ps=3.38e+06u w=1.4e+06u l=600000u
X14 a_n524_109# a_n644_55# a_n702_109# VSUBS sky130_fd_pr__nfet_01v8 ad=4.06e+11p pd=3.38e+06u as=4.06e+11p ps=3.38e+06u w=1.4e+06u l=600000u
X15 a_n994_n887# a_n994_n887# a_n994_n887# VSUBS sky130_fd_pr__nfet_01v8 ad=0p pd=0u as=0p ps=0u w=1.4e+06u l=600000u
X16 a_n232_607# a_n352_553# a_n410_607# VSUBS sky130_fd_pr__nfet_01v8 ad=4.06e+11p pd=3.38e+06u as=4.06e+11p ps=3.38e+06u w=1.4e+06u l=600000u
X17 a_n232_n389# a_n352_n445# a_n410_n389# VSUBS sky130_fd_pr__nfet_01v8 ad=4.06e+11p pd=3.38e+06u as=4.06e+11p ps=3.38e+06u w=1.4e+06u l=600000u
X18 a_n524_n389# a_n644_n445# a_n702_n389# VSUBS sky130_fd_pr__nfet_01v8 ad=4.06e+11p pd=3.38e+06u as=4.06e+11p ps=3.38e+06u w=1.4e+06u l=600000u
X19 a_60_607# a_n60_553# a_n118_607# VSUBS sky130_fd_pr__nfet_01v8 ad=4.06e+11p pd=3.38e+06u as=4.06e+11p ps=3.38e+06u w=1.4e+06u l=600000u
X20 a_352_109# a_232_55# a_174_109# VSUBS sky130_fd_pr__nfet_01v8 ad=4.06e+11p pd=3.38e+06u as=4.06e+11p ps=3.38e+06u w=1.4e+06u l=600000u
X21 a_n994_n887# a_n994_n887# a_n994_n887# VSUBS sky130_fd_pr__nfet_01v8 ad=0p pd=0u as=0p ps=0u w=1.4e+06u l=600000u
X22 a_n232_109# a_n352_55# a_n410_109# VSUBS sky130_fd_pr__nfet_01v8 ad=4.06e+11p pd=3.38e+06u as=4.06e+11p ps=3.38e+06u w=1.4e+06u l=600000u
X23 a_60_n887# a_n60_n943# a_n118_n887# VSUBS sky130_fd_pr__nfet_01v8 ad=4.06e+11p pd=3.38e+06u as=4.06e+11p ps=3.38e+06u w=1.4e+06u l=600000u
X24 a_758_n887# a_758_n887# a_758_n887# VSUBS sky130_fd_pr__nfet_01v8 ad=0p pd=0u as=0p ps=0u w=1.4e+06u l=600000u
X25 a_60_109# a_n60_55# a_n118_109# VSUBS sky130_fd_pr__nfet_01v8 ad=4.06e+11p pd=3.38e+06u as=4.06e+11p ps=3.38e+06u w=1.4e+06u l=600000u
X26 a_n994_n887# a_n994_n887# a_n994_n887# VSUBS sky130_fd_pr__nfet_01v8 ad=0p pd=0u as=0p ps=0u w=1.4e+06u l=600000u
X27 a_352_n887# a_232_n943# a_174_n887# VSUBS sky130_fd_pr__nfet_01v8 ad=4.06e+11p pd=3.38e+06u as=4.06e+11p ps=3.38e+06u w=1.4e+06u l=600000u
.ends

.subckt sky130_fd_pr__nfet_01v8_EZNTQN a_n830_109# a_n652_n887# a_n652_109# a_n772_55#
+ a_118_553# a_594_n389# a_n772_n445# a_60_607# a_772_n887# a_n474_109# a_772_109#
+ a_n296_109# a_n772_553# a_n296_n389# a_594_109# a_n594_55# a_n594_553# a_n474_n887#
+ a_118_n943# a_60_n389# a_n594_n445# a_n60_55# a_n830_607# a_n772_n943# a_416_n389#
+ a_n652_607# a_594_n887# a_652_n445# a_n416_55# a_n474_607# a_772_607# a_n296_607#
+ a_n60_n445# a_594_607# a_n296_n887# a_n118_n389# a_652_553# a_60_n887# a_n238_55#
+ a_474_553# a_n594_n943# a_238_n389# a_n416_n445# a_416_n887# a_474_n445# a_296_553#
+ a_652_n943# a_n830_n389# a_652_55# a_n118_n887# a_n60_n943# a_n118_109# a_n238_n445#
+ a_416_109# a_n416_553# a_296_n445# a_238_109# a_474_55# a_n238_553# a_238_n887#
+ a_n416_n943# a_n1110_n1061# a_474_n943# a_n652_n389# a_n830_n887# a_60_109# a_772_n389#
+ a_n60_553# a_296_55# a_n118_607# a_n238_n943# a_416_607# a_296_n943# a_n474_n389#
+ a_118_n445# a_118_55# a_238_607#
X0 a_n652_109# a_n772_55# a_n830_109# a_n1110_n1061# sky130_fd_pr__nfet_01v8 ad=4.06e+11p pd=3.38e+06u as=4.06e+11p ps=3.38e+06u w=1.4e+06u l=600000u
X1 a_60_n389# a_n60_n445# a_n118_n389# a_n1110_n1061# sky130_fd_pr__nfet_01v8 ad=4.06e+11p pd=3.38e+06u as=4.06e+11p ps=3.38e+06u w=1.4e+06u l=600000u
X2 a_594_n389# a_474_n445# a_416_n389# a_n1110_n1061# sky130_fd_pr__nfet_01v8 ad=4.06e+11p pd=3.38e+06u as=4.06e+11p ps=3.38e+06u w=1.4e+06u l=600000u
X3 a_n1110_n1061# a_n1110_n1061# a_772_n887# a_n1110_n1061# sky130_fd_pr__nfet_01v8 ad=3.248e+12p pd=2.704e+07u as=4.06e+11p ps=3.38e+06u w=1.4e+06u l=600000u
X4 a_n830_n887# a_n1110_n1061# a_n1110_n1061# a_n1110_n1061# sky130_fd_pr__nfet_01v8 ad=4.06e+11p pd=3.38e+06u as=0p ps=0u w=1.4e+06u l=600000u
X5 a_n474_n887# a_n594_n943# a_n652_n887# a_n1110_n1061# sky130_fd_pr__nfet_01v8 ad=4.06e+11p pd=3.38e+06u as=4.06e+11p ps=3.38e+06u w=1.4e+06u l=600000u
X6 a_594_607# a_474_553# a_416_607# a_n1110_n1061# sky130_fd_pr__nfet_01v8 ad=4.06e+11p pd=3.38e+06u as=4.06e+11p ps=3.38e+06u w=1.4e+06u l=600000u
X7 a_n296_109# a_n416_55# a_n474_109# a_n1110_n1061# sky130_fd_pr__nfet_01v8 ad=4.06e+11p pd=3.38e+06u as=4.06e+11p ps=3.38e+06u w=1.4e+06u l=600000u
X8 a_416_n887# a_296_n943# a_238_n887# a_n1110_n1061# sky130_fd_pr__nfet_01v8 ad=4.06e+11p pd=3.38e+06u as=4.06e+11p ps=3.38e+06u w=1.4e+06u l=600000u
X9 a_n474_607# a_n594_553# a_n652_607# a_n1110_n1061# sky130_fd_pr__nfet_01v8 ad=4.06e+11p pd=3.38e+06u as=4.06e+11p ps=3.38e+06u w=1.4e+06u l=600000u
X10 a_n296_n887# a_n416_n943# a_n474_n887# a_n1110_n1061# sky130_fd_pr__nfet_01v8 ad=4.06e+11p pd=3.38e+06u as=0p ps=0u w=1.4e+06u l=600000u
X11 a_n1110_n1061# a_n1110_n1061# a_772_607# a_n1110_n1061# sky130_fd_pr__nfet_01v8 ad=0p pd=0u as=4.06e+11p ps=3.38e+06u w=1.4e+06u l=600000u
X12 a_n1110_n1061# a_n1110_n1061# a_772_n389# a_n1110_n1061# sky130_fd_pr__nfet_01v8 ad=0p pd=0u as=4.06e+11p ps=3.38e+06u w=1.4e+06u l=600000u
X13 a_238_607# a_118_553# a_60_607# a_n1110_n1061# sky130_fd_pr__nfet_01v8 ad=4.06e+11p pd=3.38e+06u as=4.06e+11p ps=3.38e+06u w=1.4e+06u l=600000u
X14 a_238_n887# a_118_n943# a_60_n887# a_n1110_n1061# sky130_fd_pr__nfet_01v8 ad=0p pd=0u as=4.06e+11p ps=3.38e+06u w=1.4e+06u l=600000u
X15 a_n830_n389# a_n1110_n1061# a_n1110_n1061# a_n1110_n1061# sky130_fd_pr__nfet_01v8 ad=4.06e+11p pd=3.38e+06u as=0p ps=0u w=1.4e+06u l=600000u
X16 a_n474_n389# a_n594_n445# a_n652_n389# a_n1110_n1061# sky130_fd_pr__nfet_01v8 ad=4.06e+11p pd=3.38e+06u as=4.06e+11p ps=3.38e+06u w=1.4e+06u l=600000u
X17 a_n830_607# a_n1110_n1061# a_n1110_n1061# a_n1110_n1061# sky130_fd_pr__nfet_01v8 ad=4.06e+11p pd=3.38e+06u as=0p ps=0u w=1.4e+06u l=600000u
X18 a_n118_607# a_n238_553# a_n296_607# a_n1110_n1061# sky130_fd_pr__nfet_01v8 ad=4.06e+11p pd=3.38e+06u as=4.06e+11p ps=3.38e+06u w=1.4e+06u l=600000u
X19 a_594_109# a_474_55# a_416_109# a_n1110_n1061# sky130_fd_pr__nfet_01v8 ad=4.06e+11p pd=3.38e+06u as=4.06e+11p ps=3.38e+06u w=1.4e+06u l=600000u
X20 a_416_n389# a_296_n445# a_238_n389# a_n1110_n1061# sky130_fd_pr__nfet_01v8 ad=0p pd=0u as=4.06e+11p ps=3.38e+06u w=1.4e+06u l=600000u
X21 a_772_n887# a_652_n943# a_594_n887# a_n1110_n1061# sky130_fd_pr__nfet_01v8 ad=0p pd=0u as=4.06e+11p ps=3.38e+06u w=1.4e+06u l=600000u
X22 a_n474_109# a_n594_55# a_n652_109# a_n1110_n1061# sky130_fd_pr__nfet_01v8 ad=0p pd=0u as=0p ps=0u w=1.4e+06u l=600000u
X23 a_n296_n389# a_n416_n445# a_n474_n389# a_n1110_n1061# sky130_fd_pr__nfet_01v8 ad=4.06e+11p pd=3.38e+06u as=0p ps=0u w=1.4e+06u l=600000u
X24 a_n1110_n1061# a_n1110_n1061# a_772_109# a_n1110_n1061# sky130_fd_pr__nfet_01v8 ad=0p pd=0u as=4.06e+11p ps=3.38e+06u w=1.4e+06u l=600000u
X25 a_238_109# a_118_55# a_60_109# a_n1110_n1061# sky130_fd_pr__nfet_01v8 ad=4.06e+11p pd=3.38e+06u as=4.06e+11p ps=3.38e+06u w=1.4e+06u l=600000u
X26 a_238_n389# a_118_n445# a_60_n389# a_n1110_n1061# sky130_fd_pr__nfet_01v8 ad=0p pd=0u as=0p ps=0u w=1.4e+06u l=600000u
X27 a_416_607# a_296_553# a_238_607# a_n1110_n1061# sky130_fd_pr__nfet_01v8 ad=0p pd=0u as=0p ps=0u w=1.4e+06u l=600000u
X28 a_n830_109# a_n1110_n1061# a_n1110_n1061# a_n1110_n1061# sky130_fd_pr__nfet_01v8 ad=0p pd=0u as=0p ps=0u w=1.4e+06u l=600000u
X29 a_n118_109# a_n238_55# a_n296_109# a_n1110_n1061# sky130_fd_pr__nfet_01v8 ad=4.06e+11p pd=3.38e+06u as=0p ps=0u w=1.4e+06u l=600000u
X30 a_n118_n887# a_n238_n943# a_n296_n887# a_n1110_n1061# sky130_fd_pr__nfet_01v8 ad=4.06e+11p pd=3.38e+06u as=0p ps=0u w=1.4e+06u l=600000u
X31 a_60_607# a_n60_553# a_n118_607# a_n1110_n1061# sky130_fd_pr__nfet_01v8 ad=0p pd=0u as=0p ps=0u w=1.4e+06u l=600000u
X32 a_772_n389# a_652_n445# a_594_n389# a_n1110_n1061# sky130_fd_pr__nfet_01v8 ad=0p pd=0u as=0p ps=0u w=1.4e+06u l=600000u
X33 a_772_607# a_652_553# a_594_607# a_n1110_n1061# sky130_fd_pr__nfet_01v8 ad=0p pd=0u as=0p ps=0u w=1.4e+06u l=600000u
X34 a_n652_n887# a_n772_n943# a_n830_n887# a_n1110_n1061# sky130_fd_pr__nfet_01v8 ad=0p pd=0u as=0p ps=0u w=1.4e+06u l=600000u
X35 a_594_n887# a_474_n943# a_416_n887# a_n1110_n1061# sky130_fd_pr__nfet_01v8 ad=0p pd=0u as=0p ps=0u w=1.4e+06u l=600000u
X36 a_n652_607# a_n772_553# a_n830_607# a_n1110_n1061# sky130_fd_pr__nfet_01v8 ad=0p pd=0u as=0p ps=0u w=1.4e+06u l=600000u
X37 a_60_n887# a_n60_n943# a_n118_n887# a_n1110_n1061# sky130_fd_pr__nfet_01v8 ad=0p pd=0u as=0p ps=0u w=1.4e+06u l=600000u
X38 a_416_109# a_296_55# a_238_109# a_n1110_n1061# sky130_fd_pr__nfet_01v8 ad=0p pd=0u as=0p ps=0u w=1.4e+06u l=600000u
X39 a_n118_n389# a_n238_n445# a_n296_n389# a_n1110_n1061# sky130_fd_pr__nfet_01v8 ad=0p pd=0u as=0p ps=0u w=1.4e+06u l=600000u
X40 a_60_109# a_n60_55# a_n118_109# a_n1110_n1061# sky130_fd_pr__nfet_01v8 ad=0p pd=0u as=0p ps=0u w=1.4e+06u l=600000u
X41 a_n296_607# a_n416_553# a_n474_607# a_n1110_n1061# sky130_fd_pr__nfet_01v8 ad=0p pd=0u as=0p ps=0u w=1.4e+06u l=600000u
X42 a_772_109# a_652_55# a_594_109# a_n1110_n1061# sky130_fd_pr__nfet_01v8 ad=0p pd=0u as=0p ps=0u w=1.4e+06u l=600000u
X43 a_n652_n389# a_n772_n445# a_n830_n389# a_n1110_n1061# sky130_fd_pr__nfet_01v8 ad=0p pd=0u as=0p ps=0u w=1.4e+06u l=600000u
.ends

.subckt sky130_fd_pr__pfet_01v8_JJWXCM a_n207_n140# a_29_n205# a_327_n140# a_n29_n140#
+ a_149_n140# a_n505_n205# a_563_n205# a_n741_n140# a_n327_n205# a_n563_n140# a_385_n205#
+ w_n777_n241# a_n149_n205# a_n385_n140# a_207_n205# a_505_n140#
X0 a_n385_n140# a_n505_n205# a_n563_n140# w_n777_n241# sky130_fd_pr__pfet_01v8 ad=4.06e+11p pd=3.38e+06u as=4.06e+11p ps=3.38e+06u w=1.4e+06u l=600000u
X1 a_327_n140# a_207_n205# a_149_n140# w_n777_n241# sky130_fd_pr__pfet_01v8 ad=4.06e+11p pd=3.38e+06u as=4.06e+11p ps=3.38e+06u w=1.4e+06u l=600000u
X2 a_149_n140# a_29_n205# a_n29_n140# w_n777_n241# sky130_fd_pr__pfet_01v8 ad=0p pd=0u as=4.06e+11p ps=3.38e+06u w=1.4e+06u l=600000u
X3 a_n207_n140# a_n327_n205# a_n385_n140# w_n777_n241# sky130_fd_pr__pfet_01v8 ad=4.06e+11p pd=3.38e+06u as=0p ps=0u w=1.4e+06u l=600000u
X4 a_563_n205# a_563_n205# a_505_n140# w_n777_n241# sky130_fd_pr__pfet_01v8 ad=4.06e+11p pd=3.38e+06u as=4.06e+11p ps=3.38e+06u w=1.4e+06u l=600000u
X5 a_n29_n140# a_n149_n205# a_n207_n140# w_n777_n241# sky130_fd_pr__pfet_01v8 ad=0p pd=0u as=0p ps=0u w=1.4e+06u l=600000u
X6 a_n563_n140# a_n741_n140# a_n741_n140# w_n777_n241# sky130_fd_pr__pfet_01v8 ad=0p pd=0u as=4.06e+11p ps=3.38e+06u w=1.4e+06u l=600000u
X7 a_505_n140# a_385_n205# a_327_n140# w_n777_n241# sky130_fd_pr__pfet_01v8 ad=0p pd=0u as=0p ps=0u w=1.4e+06u l=600000u
.ends

.subckt sky130_fd_pr__nfet_01v8_LJREPQ a_n149_n195# a_n207_n140# a_207_n195# a_n29_n140#
+ a_149_n140# a_29_n195# a_n385_n140# VSUBS
X0 a_n29_n140# a_n149_n195# a_n207_n140# VSUBS sky130_fd_pr__nfet_01v8 ad=4.06e+11p pd=3.38e+06u as=4.06e+11p ps=3.38e+06u w=1.4e+06u l=600000u
X1 a_207_n195# a_207_n195# a_149_n140# VSUBS sky130_fd_pr__nfet_01v8 ad=4.06e+11p pd=3.38e+06u as=4.06e+11p ps=3.38e+06u w=1.4e+06u l=600000u
X2 a_149_n140# a_29_n195# a_n29_n140# VSUBS sky130_fd_pr__nfet_01v8 ad=0p pd=0u as=0p ps=0u w=1.4e+06u l=600000u
X3 a_n207_n140# a_n385_n140# a_n385_n140# VSUBS sky130_fd_pr__nfet_01v8 ad=0p pd=0u as=4.06e+11p ps=3.38e+06u w=1.4e+06u l=600000u
.ends

.subckt sky130_fd_pr__pfet_01v8_lvt_SAWXCM a_n207_n140# a_29_n204# a_327_n140# a_n29_n140#
+ a_149_n140# a_n505_n204# a_563_n204# a_n741_n140# a_n327_n204# a_385_n204# a_n563_n140#
+ a_n149_n204# w_n777_n240# a_n385_n140# a_207_n204# a_505_n140#
X0 a_505_n140# a_385_n204# a_327_n140# w_n777_n240# sky130_fd_pr__pfet_01v8_lvt ad=4.06e+11p pd=3.38e+06u as=4.06e+11p ps=3.38e+06u w=1.4e+06u l=600000u
X1 a_n385_n140# a_n505_n204# a_n563_n140# w_n777_n240# sky130_fd_pr__pfet_01v8_lvt ad=4.06e+11p pd=3.38e+06u as=4.06e+11p ps=3.38e+06u w=1.4e+06u l=600000u
X2 a_327_n140# a_207_n204# a_149_n140# w_n777_n240# sky130_fd_pr__pfet_01v8_lvt ad=0p pd=0u as=4.06e+11p ps=3.38e+06u w=1.4e+06u l=600000u
X3 a_149_n140# a_29_n204# a_n29_n140# w_n777_n240# sky130_fd_pr__pfet_01v8_lvt ad=0p pd=0u as=4.06e+11p ps=3.38e+06u w=1.4e+06u l=600000u
X4 a_n207_n140# a_n327_n204# a_n385_n140# w_n777_n240# sky130_fd_pr__pfet_01v8_lvt ad=4.06e+11p pd=3.38e+06u as=0p ps=0u w=1.4e+06u l=600000u
X5 a_563_n204# a_563_n204# a_505_n140# w_n777_n240# sky130_fd_pr__pfet_01v8_lvt ad=4.06e+11p pd=3.38e+06u as=0p ps=0u w=1.4e+06u l=600000u
X6 a_n29_n140# a_n149_n204# a_n207_n140# w_n777_n240# sky130_fd_pr__pfet_01v8_lvt ad=0p pd=0u as=0p ps=0u w=1.4e+06u l=600000u
X7 a_n563_n140# a_n741_n140# a_n741_n140# w_n777_n240# sky130_fd_pr__pfet_01v8_lvt ad=0p pd=0u as=4.06e+11p ps=3.38e+06u w=1.4e+06u l=600000u
.ends

.subckt sky130_fd_pr__nfet_01v8_lvt_28TRYY a_385_553# a_n1097_109# a_n149_55# a_919_n445#
+ a_29_55# a_n29_n389# a_n207_n887# a_1097_n943# a_n1555_n1061# a_n1097_n389# a_n327_n445#
+ a_149_n389# a_n207_109# a_385_n445# a_563_55# a_n505_n943# a_n1275_n887# a_327_n887#
+ a_505_109# a_563_n943# a_n505_553# a_n741_n389# a_327_109# a_n327_553# a_n1275_607#
+ a_n1217_55# a_861_n389# a_149_109# a_n149_553# a_n1097_607# a_385_55# a_n149_n445#
+ a_n29_109# a_919_n943# a_n29_n887# a_n327_n943# a_n1097_n887# a_149_n887# a_n207_607#
+ a_207_n445# a_385_n943# a_n563_n389# a_1097_553# a_n1039_55# a_1217_n389# a_207_55#
+ a_n1217_n445# a_505_607# a_n741_n887# a_327_607# a_n861_n445# a_683_n389# a_n861_55#
+ a_149_607# a_861_n887# a_n919_n389# a_207_553# a_n741_109# a_n919_109# a_n29_607#
+ a_n149_n943# a_1217_109# a_n563_109# a_919_55# a_n1217_553# a_n385_n389# a_1039_109#
+ a_1039_n389# a_861_109# a_n1039_n445# a_n385_109# a_207_n943# a_n861_553# a_n683_55#
+ a_n563_n887# a_n1039_553# a_29_n445# a_1217_n887# a_683_109# a_n683_n445# a_n1217_n943#
+ a_n683_553# a_29_553# a_505_n389# a_n861_n943# a_683_n887# a_741_n445# a_n505_55#
+ a_n919_n887# a_n741_607# a_n919_607# a_1217_607# a_n563_607# a_1097_55# a_1097_n445#
+ a_n207_n389# a_n385_n887# a_1039_607# a_1039_n887# a_861_607# a_n1039_n943# a_n385_607#
+ a_29_n943# a_n327_55# a_n1275_n389# a_683_607# a_n505_n445# a_327_n389# a_n683_n943#
+ a_919_553# a_741_553# a_563_n445# a_505_n887# a_563_553# a_741_n943# a_741_55# a_n1275_109#
X0 a_n919_607# a_n1039_553# a_n1097_607# a_n1555_n1061# sky130_fd_pr__nfet_01v8_lvt ad=4.06e+11p pd=3.38e+06u as=4.06e+11p ps=3.38e+06u w=1.4e+06u l=600000u
X1 a_1039_607# a_919_553# a_861_607# a_n1555_n1061# sky130_fd_pr__nfet_01v8_lvt ad=4.06e+11p pd=3.38e+06u as=4.06e+11p ps=3.38e+06u w=1.4e+06u l=600000u
X2 a_149_109# a_29_55# a_n29_109# a_n1555_n1061# sky130_fd_pr__nfet_01v8_lvt ad=4.06e+11p pd=3.38e+06u as=4.06e+11p ps=3.38e+06u w=1.4e+06u l=600000u
X3 a_n1097_n887# a_n1217_n943# a_n1275_n887# a_n1555_n1061# sky130_fd_pr__nfet_01v8_lvt ad=4.06e+11p pd=3.38e+06u as=4.06e+11p ps=3.38e+06u w=1.4e+06u l=600000u
X4 a_683_n887# a_563_n943# a_505_n887# a_n1555_n1061# sky130_fd_pr__nfet_01v8_lvt ad=4.06e+11p pd=3.38e+06u as=4.06e+11p ps=3.38e+06u w=1.4e+06u l=600000u
X5 a_n207_n389# a_n327_n445# a_n385_n389# a_n1555_n1061# sky130_fd_pr__nfet_01v8_lvt ad=4.06e+11p pd=3.38e+06u as=4.06e+11p ps=3.38e+06u w=1.4e+06u l=600000u
X6 a_n207_607# a_n327_553# a_n385_607# a_n1555_n1061# sky130_fd_pr__nfet_01v8_lvt ad=4.06e+11p pd=3.38e+06u as=4.06e+11p ps=3.38e+06u w=1.4e+06u l=600000u
X7 a_n1275_109# a_n1555_n1061# a_n1555_n1061# a_n1555_n1061# sky130_fd_pr__nfet_01v8_lvt ad=4.06e+11p pd=3.38e+06u as=3.248e+12p ps=2.704e+07u w=1.4e+06u l=600000u
X8 a_683_109# a_563_55# a_505_109# a_n1555_n1061# sky130_fd_pr__nfet_01v8_lvt ad=4.06e+11p pd=3.38e+06u as=4.06e+11p ps=3.38e+06u w=1.4e+06u l=600000u
X9 a_1217_n389# a_1097_n445# a_1039_n389# a_n1555_n1061# sky130_fd_pr__nfet_01v8_lvt ad=4.06e+11p pd=3.38e+06u as=4.06e+11p ps=3.38e+06u w=1.4e+06u l=600000u
X10 a_n1275_n389# a_n1555_n1061# a_n1555_n1061# a_n1555_n1061# sky130_fd_pr__nfet_01v8_lvt ad=4.06e+11p pd=3.38e+06u as=0p ps=0u w=1.4e+06u l=600000u
X11 a_n563_109# a_n683_55# a_n741_109# a_n1555_n1061# sky130_fd_pr__nfet_01v8_lvt ad=4.06e+11p pd=3.38e+06u as=4.06e+11p ps=3.38e+06u w=1.4e+06u l=600000u
X12 a_n1555_n1061# a_n1555_n1061# a_1217_109# a_n1555_n1061# sky130_fd_pr__nfet_01v8_lvt ad=0p pd=0u as=4.06e+11p ps=3.38e+06u w=1.4e+06u l=600000u
X13 a_n741_n389# a_n861_n445# a_n919_n389# a_n1555_n1061# sky130_fd_pr__nfet_01v8_lvt ad=4.06e+11p pd=3.38e+06u as=4.06e+11p ps=3.38e+06u w=1.4e+06u l=600000u
X14 a_n29_n887# a_n149_n943# a_n207_n887# a_n1555_n1061# sky130_fd_pr__nfet_01v8_lvt ad=4.06e+11p pd=3.38e+06u as=4.06e+11p ps=3.38e+06u w=1.4e+06u l=600000u
X15 a_n919_109# a_n1039_55# a_n1097_109# a_n1555_n1061# sky130_fd_pr__nfet_01v8_lvt ad=4.06e+11p pd=3.38e+06u as=4.06e+11p ps=3.38e+06u w=1.4e+06u l=600000u
X16 a_327_109# a_207_55# a_149_109# a_n1555_n1061# sky130_fd_pr__nfet_01v8_lvt ad=4.06e+11p pd=3.38e+06u as=0p ps=0u w=1.4e+06u l=600000u