* NGSPICE file created from clock_generator.ext - technology: sky130A

.subckt sky130_fd_sc_hd__decap_3 VPWR VGND VNB VPB
X0 VPWR VGND VPWR VPB sky130_fd_pr__pfet_01v8_hvt ad=0p pd=0u as=0p ps=0u w=870000u l=590000u
X1 VGND VPWR VGND VNB sky130_fd_pr__nfet_01v8 ad=0p pd=0u as=0p ps=0u w=550000u l=590000u
.ends

.subckt sky130_fd_sc_hd__decap_12 VGND VPWR VNB VPB
X0 VPWR VGND VPWR VPB sky130_fd_pr__pfet_01v8_hvt ad=0p pd=0u as=0p ps=0u w=870000u l=4.73e+06u
X1 VGND VPWR VGND VNB sky130_fd_pr__nfet_01v8 ad=0p pd=0u as=0p ps=0u w=550000u l=4.73e+06u
.ends

.subckt sky130_fd_sc_hd__decap_4 VGND VPWR VNB VPB
X0 VPWR VGND VPWR VPB sky130_fd_pr__pfet_01v8_hvt ad=0p pd=0u as=0p ps=0u w=870000u l=1.05e+06u
X1 VGND VPWR VGND VNB sky130_fd_pr__nfet_01v8 ad=0p pd=0u as=0p ps=0u w=550000u l=1.05e+06u
.ends

.subckt sky130_fd_sc_hd__clkinvlp_2 VGND VPWR Y A VNB VPB
X0 Y A a_150_67# VNB sky130_fd_pr__nfet_01v8 ad=0p pd=0u as=0p ps=0u w=550000u l=150000u
X1 VPWR A Y VPB sky130_fd_pr__pfet_01v8_hvt ad=0p pd=0u as=0p ps=0u w=1e+06u l=250000u
X2 a_150_67# A VGND VNB sky130_fd_pr__nfet_01v8 ad=0p pd=0u as=0p ps=0u w=550000u l=150000u
X3 Y A VPWR VPB sky130_fd_pr__pfet_01v8_hvt ad=0p pd=0u as=0p ps=0u w=1e+06u l=250000u
.ends

.subckt sky130_fd_sc_hd__clkinv_4 A Y VPWR VGND VNB VPB
X0 Y A VPWR VPB sky130_fd_pr__pfet_01v8_hvt ad=0p pd=0u as=0p ps=0u w=1e+06u l=150000u
X1 VGND A Y VNB sky130_fd_pr__nfet_01v8 ad=0p pd=0u as=0p ps=0u w=420000u l=150000u
X2 VGND A Y VNB sky130_fd_pr__nfet_01v8 ad=0p pd=0u as=0p ps=0u w=420000u l=150000u
X3 VPWR A Y VPB sky130_fd_pr__pfet_01v8_hvt ad=0p pd=0u as=0p ps=0u w=1e+06u l=150000u
X4 VPWR A Y VPB sky130_fd_pr__pfet_01v8_hvt ad=0p pd=0u as=0p ps=0u w=1e+06u l=150000u
X5 Y A VGND VNB sky130_fd_pr__nfet_01v8 ad=0p pd=0u as=0p ps=0u w=420000u l=150000u
X6 Y A VPWR VPB sky130_fd_pr__pfet_01v8_hvt ad=0p pd=0u as=0p ps=0u w=1e+06u l=150000u
X7 Y A VGND VNB sky130_fd_pr__nfet_01v8 ad=0p pd=0u as=0p ps=0u w=420000u l=150000u
X8 Y A VPWR VPB sky130_fd_pr__pfet_01v8_hvt ad=0p pd=0u as=0p ps=0u w=1e+06u l=150000u
X9 VPWR A Y VPB sky130_fd_pr__pfet_01v8_hvt ad=0p pd=0u as=0p ps=0u w=1e+06u l=150000u
.ends

.subckt sky130_fd_sc_hd__dfxbp_1 VGND VPWR Q_N D CLK Q VNB VPB
X0 Q a_1059_315# VGND VNB sky130_fd_pr__nfet_01v8 ad=0p pd=0u as=0p ps=0u w=650000u l=150000u
X1 a_891_413# a_193_47# a_634_159# VNB sky130_fd_pr__nfet_01v8 ad=0p pd=0u as=0p ps=0u w=360000u l=150000u
X2 a_561_413# a_27_47# a_466_413# VPB sky130_fd_pr__pfet_01v8_hvt ad=0p pd=0u as=0p ps=0u w=420000u l=150000u
X3 VPWR CLK a_27_47# VPB sky130_fd_pr__pfet_01v8_hvt ad=0p pd=0u as=0p ps=0u w=640000u l=150000u
X4 a_381_47# D VPWR VPB sky130_fd_pr__pfet_01v8_hvt ad=0p pd=0u as=0p ps=0u w=420000u l=150000u
X5 VGND a_634_159# a_592_47# VNB sky130_fd_pr__nfet_01v8 ad=0p pd=0u as=0p ps=0u w=420000u l=150000u
X6 a_466_413# a_193_47# a_381_47# VPB sky130_fd_pr__pfet_01v8_hvt ad=0p pd=0u as=0p ps=0u w=420000u l=150000u
X7 VPWR a_634_159# a_561_413# VPB sky130_fd_pr__pfet_01v8_hvt ad=0p pd=0u as=0p ps=0u w=420000u l=150000u
X8 a_634_159# a_466_413# VGND VNB sky130_fd_pr__nfet_01v8 ad=0p pd=0u as=0p ps=0u w=640000u l=150000u
X9 Q a_1059_315# VPWR VPB sky130_fd_pr__pfet_01v8_hvt ad=0p pd=0u as=0p ps=0u w=1e+06u l=150000u
X10 VGND a_1059_315# a_1490_369# VNB sky130_fd_pr__nfet_01v8 ad=0p pd=0u as=0p ps=0u w=420000u l=150000u
X11 a_634_159# a_466_413# VPWR VPB sky130_fd_pr__pfet_01v8_hvt ad=0p pd=0u as=0p ps=0u w=750000u l=150000u
X12 a_975_413# a_193_47# a_891_413# VPB sky130_fd_pr__pfet_01v8_hvt ad=0p pd=0u as=0p ps=0u w=420000u l=150000u
X13 VGND a_1059_315# a_1017_47# VNB sky130_fd_pr__nfet_01v8 ad=0p pd=0u as=0p ps=0u w=420000u l=150000u
X14 a_193_47# a_27_47# VGND VNB sky130_fd_pr__nfet_01v8 ad=0p pd=0u as=0p ps=0u w=420000u l=150000u
X15 a_891_413# a_27_47# a_634_159# VPB sky130_fd_pr__pfet_01v8_hvt ad=0p pd=0u as=0p ps=0u w=420000u l=150000u
X16 a_592_47# a_193_47# a_466_413# VNB sky130_fd_pr__nfet_01v8 ad=0p pd=0u as=0p ps=0u w=360000u l=150000u
X17 VPWR a_891_413# a_1059_315# VPB sky130_fd_pr__pfet_01v8_hvt ad=0p pd=0u as=0p ps=0u w=1e+06u l=150000u
X18 a_1017_47# a_27_47# a_891_413# VNB sky130_fd_pr__nfet_01v8 ad=0p pd=0u as=0p ps=0u w=360000u l=150000u
X19 VPWR a_1059_315# a_975_413# VPB sky130_fd_pr__pfet_01v8_hvt ad=0p pd=0u as=0p ps=0u w=420000u l=150000u
X20 a_466_413# a_27_47# a_381_47# VNB sky130_fd_pr__nfet_01v8 ad=0p pd=0u as=0p ps=0u w=360000u l=150000u
X21 a_193_47# a_27_47# VPWR VPB sky130_fd_pr__pfet_01v8_hvt ad=0p pd=0u as=0p ps=0u w=640000u l=150000u
X22 VGND a_891_413# a_1059_315# VNB sky130_fd_pr__nfet_01v8 ad=0p pd=0u as=0p ps=0u w=650000u l=150000u
X23 Q_N a_1490_369# VGND VNB sky130_fd_pr__nfet_01v8 ad=0p pd=0u as=0p ps=0u w=650000u l=150000u
X24 a_381_47# D VGND VNB sky130_fd_pr__nfet_01v8 ad=0p pd=0u as=0p ps=0u w=420000u l=150000u
X25 Q_N a_1490_369# VPWR VPB sky130_fd_pr__pfet_01v8_hvt ad=0p pd=0u as=0p ps=0u w=1e+06u l=150000u
X26 VGND CLK a_27_47# VNB sky130_fd_pr__nfet_01v8 ad=0p pd=0u as=0p ps=0u w=420000u l=150000u
X27 VPWR a_1059_315# a_1490_369# VPB sky130_fd_pr__pfet_01v8_hvt ad=0p pd=0u as=0p ps=0u w=640000u l=150000u
.ends

.subckt sky130_fd_sc_hd__decap_8 VPWR VGND VNB VPB
X0 VPWR VGND VPWR VPB sky130_fd_pr__pfet_01v8_hvt ad=0p pd=0u as=0p ps=0u w=870000u l=2.89e+06u
X1 VGND VPWR VGND VNB sky130_fd_pr__nfet_01v8 ad=0p pd=0u as=0p ps=0u w=550000u l=2.89e+06u
.ends

.subckt sky130_fd_sc_hd__clkbuf_16 X A VGND VPWR VNB VPB
X0 VPWR A a_110_47# VPB sky130_fd_pr__pfet_01v8_hvt ad=0p pd=0u as=0p ps=0u w=1e+06u l=150000u
X1 VPWR a_110_47# X VPB sky130_fd_pr__pfet_01v8_hvt ad=0p pd=0u as=0p ps=0u w=1e+06u l=150000u
X2 X a_110_47# VPWR VPB sky130_fd_pr__pfet_01v8_hvt ad=0p pd=0u as=0p ps=0u w=1e+06u l=150000u
X3 X a_110_47# VPWR VPB sky130_fd_pr__pfet_01v8_hvt ad=0p pd=0u as=0p ps=0u w=1e+06u l=150000u
X4 VPWR a_110_47# X VPB sky130_fd_pr__pfet_01v8_hvt ad=0p pd=0u as=0p ps=0u w=1e+06u l=150000u
X5 VPWR a_110_47# X VPB sky130_fd_pr__pfet_01v8_hvt ad=0p pd=0u as=0p ps=0u w=1e+06u l=150000u
X6 a_110_47# A VPWR VPB sky130_fd_pr__pfet_01v8_hvt ad=0p pd=0u as=0p ps=0u w=1e+06u l=150000u
X7 a_110_47# A VGND VNB sky130_fd_pr__nfet_01v8 ad=0p pd=0u as=0p ps=0u w=420000u l=150000u
X8 VGND a_110_47# X VNB sky130_fd_pr__nfet_01v8 ad=0p pd=0u as=0p ps=0u w=420000u l=150000u
X9 X a_110_47# VGND VNB sky130_fd_pr__nfet_01v8 ad=0p pd=0u as=0p ps=0u w=420000u l=150000u
X10 VGND a_110_47# X VNB sky130_fd_pr__nfet_01v8 ad=0p pd=0u as=0p ps=0u w=420000u l=150000u
X11 a_110_47# A VPWR VPB sky130_fd_pr__pfet_01v8_hvt ad=0p pd=0u as=0p ps=0u w=1e+06u l=150000u
X12 VGND A a_110_47# VNB sky130_fd_pr__nfet_01v8 ad=0p pd=0u as=0p ps=0u w=420000u l=150000u
X13 VGND a_110_47# X VNB sky130_fd_pr__nfet_01v8 ad=0p pd=0u as=0p ps=0u w=420000u l=150000u
X14 VPWR a_110_47# X VPB sky130_fd_pr__pfet_01v8_hvt ad=0p pd=0u as=0p ps=0u w=1e+06u l=150000u
X15 X a_110_47# VPWR VPB sky130_fd_pr__pfet_01v8_hvt ad=0p pd=0u as=0p ps=0u w=1e+06u l=150000u
X16 VGND A a_110_47# VNB sky130_fd_pr__nfet_01v8 ad=0p pd=0u as=0p ps=0u w=420000u l=150000u
X17 VGND a_110_47# X VNB sky130_fd_pr__nfet_01v8 ad=0p pd=0u as=0p ps=0u w=420000u l=150000u
X18 VPWR a_110_47# X VPB sky130_fd_pr__pfet_01v8_hvt ad=0p pd=0u as=0p ps=0u w=1e+06u l=150000u
X19 VGND a_110_47# X VNB sky130_fd_pr__nfet_01v8 ad=0p pd=0u as=0p ps=0u w=420000u l=150000u
X20 X a_110_47# VPWR VPB sky130_fd_pr__pfet_01v8_hvt ad=0p pd=0u as=0p ps=0u w=1e+06u l=150000u
X21 a_110_47# A VGND VNB sky130_fd_pr__nfet_01v8 ad=0p pd=0u as=0p ps=0u w=420000u l=150000u
X22 VPWR A a_110_47# VPB sky130_fd_pr__pfet_01v8_hvt ad=0p pd=0u as=0p ps=0u w=1e+06u l=150000u
X23 VPWR a_110_47# X VPB sky130_fd_pr__pfet_01v8_hvt ad=0p pd=0u as=0p ps=0u w=1e+06u l=150000u
X24 VPWR a_110_47# X VPB sky130_fd_pr__pfet_01v8_hvt ad=0p pd=0u as=0p ps=0u w=1e+06u l=150000u
X25 VGND a_110_47# X VNB sky130_fd_pr__nfet_01v8 ad=0p pd=0u as=0p ps=0u w=420000u l=150000u
X26 X a_110_47# VPWR VPB sky130_fd_pr__pfet_01v8_hvt ad=0p pd=0u as=0p ps=0u w=1e+06u l=150000u
X27 VGND a_110_47# X VNB sky130_fd_pr__nfet_01v8 ad=0p pd=0u as=0p ps=0u w=420000u l=150000u
X28 VGND a_110_47# X VNB sky130_fd_pr__nfet_01v8 ad=0p pd=0u as=0p ps=0u w=420000u l=150000u
X29 X a_110_47# VGND VNB sky130_fd_pr__nfet_01v8 ad=0p pd=0u as=0p ps=0u w=420000u l=150000u
X30 X a_110_47# VPWR VPB sky130_fd_pr__pfet_01v8_hvt ad=0p pd=0u as=0p ps=0u w=1e+06u l=150000u
X31 X a_110_47# VPWR VPB sky130_fd_pr__pfet_01v8_hvt ad=0p pd=0u as=0p ps=0u w=1e+06u l=150000u
X32 X a_110_47# VGND VNB sky130_fd_pr__nfet_01v8 ad=0p pd=0u as=0p ps=0u w=420000u l=150000u
X33 VPWR a_110_47# X VPB sky130_fd_pr__pfet_01v8_hvt ad=0p pd=0u as=0p ps=0u w=1e+06u l=150000u
X34 X a_110_47# VPWR VPB sky130_fd_pr__pfet_01v8_hvt ad=0p pd=0u as=0p ps=0u w=1e+06u l=150000u
X35 X a_110_47# VGND VNB sky130_fd_pr__nfet_01v8 ad=0p pd=0u as=0p ps=0u w=420000u l=150000u
X36 X a_110_47# VGND VNB sky130_fd_pr__nfet_01v8 ad=0p pd=0u as=0p ps=0u w=420000u l=150000u
X37 X a_110_47# VGND VNB sky130_fd_pr__nfet_01v8 ad=0p pd=0u as=0p ps=0u w=420000u l=150000u
X38 X a_110_47# VGND VNB sky130_fd_pr__nfet_01v8 ad=0p pd=0u as=0p ps=0u w=420000u l=150000u
X39 X a_110_47# VGND VNB sky130_fd_pr__nfet_01v8 ad=0p pd=0u as=0p ps=0u w=420000u l=150000u
.ends

.subckt sky130_fd_sc_hd__decap_6 VPWR VGND VNB VPB
X0 VPWR VGND VPWR VPB sky130_fd_pr__pfet_01v8_hvt ad=0p pd=0u as=0p ps=0u w=870000u l=1.97e+06u
X1 VGND VPWR VGND VNB sky130_fd_pr__nfet_01v8 ad=0p pd=0u as=0p ps=0u w=550000u l=1.97e+06u
.ends

.subckt sky130_fd_sc_hd__nand2_1 Y B A VGND VPWR VNB VPB
X0 VPWR A Y VPB sky130_fd_pr__pfet_01v8_hvt ad=0p pd=0u as=0p ps=0u w=1e+06u l=150000u
X1 Y A a_113_47# VNB sky130_fd_pr__nfet_01v8 ad=0p pd=0u as=0p ps=0u w=650000u l=150000u
X2 a_113_47# B VGND VNB sky130_fd_pr__nfet_01v8 ad=0p pd=0u as=0p ps=0u w=650000u l=150000u
X3 Y B VPWR VPB sky130_fd_pr__pfet_01v8_hvt ad=0p pd=0u as=0p ps=0u w=1e+06u l=150000u
.ends

.subckt sky130_fd_sc_hd__clkinv_1 Y A VGND VPWR VNB VPB
X0 Y A VPWR VPB sky130_fd_pr__pfet_01v8_hvt ad=0p pd=0u as=0p ps=0u w=840000u l=150000u
X1 VGND A Y VNB sky130_fd_pr__nfet_01v8 ad=0p pd=0u as=0p ps=0u w=420000u l=150000u
X2 VPWR A Y VPB sky130_fd_pr__pfet_01v8_hvt ad=0p pd=0u as=0p ps=0u w=840000u l=150000u
.ends

.subckt sky130_fd_sc_hd__mux2_1 VGND VPWR S A1 A0 X VNB VPB
X0 VPWR a_505_21# a_535_374# VPB sky130_fd_pr__pfet_01v8_hvt ad=0p pd=0u as=0p ps=0u w=420000u l=150000u
X1 a_505_21# S VPWR VPB sky130_fd_pr__pfet_01v8_hvt ad=0p pd=0u as=0p ps=0u w=420000u l=150000u
X2 a_218_374# S VPWR VPB sky130_fd_pr__pfet_01v8_hvt ad=0p pd=0u as=0p ps=0u w=420000u l=150000u
X3 VGND a_505_21# a_439_47# VNB sky130_fd_pr__nfet_01v8 ad=0p pd=0u as=0p ps=0u w=420000u l=150000u
X4 a_76_199# A0 a_218_374# VPB sky130_fd_pr__pfet_01v8_hvt ad=0p pd=0u as=0p ps=0u w=420000u l=150000u
X5 a_505_21# S VGND VNB sky130_fd_pr__nfet_01v8 ad=0p pd=0u as=0p ps=0u w=420000u l=150000u
X6 a_439_47# A0 a_76_199# VNB sky130_fd_pr__nfet_01v8 ad=0p pd=0u as=0p ps=0u w=420000u l=150000u
X7 a_535_374# A1 a_76_199# VPB sky130_fd_pr__pfet_01v8_hvt ad=0p pd=0u as=0p ps=0u w=420000u l=150000u
X8 a_76_199# A1 a_218_47# VNB sky130_fd_pr__nfet_01v8 ad=0p pd=0u as=0p ps=0u w=420000u l=150000u
X9 a_218_47# S VGND VNB sky130_fd_pr__nfet_01v8 ad=0p pd=0u as=0p ps=0u w=420000u l=150000u
X10 VPWR a_76_199# X VPB sky130_fd_pr__pfet_01v8_hvt ad=0p pd=0u as=0p ps=0u w=1e+06u l=150000u
X11 VGND a_76_199# X VNB sky130_fd_pr__nfet_01v8 ad=0p pd=0u as=0p ps=0u w=650000u l=150000u
.ends

.subckt clock_generator p2d_b p2d p2_b p2 p1d_b p1d p1_b p1 Ad_b Ad A_b A Bd_b Bd
+ B_b B clk VSS VDD
Xsky130_fd_sc_hd__decap_3_47 VDD VSS VSS VDD sky130_fd_sc_hd__decap_3
Xsky130_fd_sc_hd__decap_3_36 VDD VSS VSS VDD sky130_fd_sc_hd__decap_3
Xsky130_fd_sc_hd__decap_3_25 VDD VSS VSS VDD sky130_fd_sc_hd__decap_3
Xsky130_fd_sc_hd__decap_3_14 VDD VSS VSS VDD sky130_fd_sc_hd__decap_3
Xsky130_fd_sc_hd__decap_12_32 VSS VDD VSS VDD sky130_fd_sc_hd__decap_12
Xsky130_fd_sc_hd__decap_12_54 VSS VDD VSS VDD sky130_fd_sc_hd__decap_12
Xsky130_fd_sc_hd__decap_12_43 VSS VDD VSS VDD sky130_fd_sc_hd__decap_12
Xsky130_fd_sc_hd__decap_12_21 VSS VDD VSS VDD sky130_fd_sc_hd__decap_12
Xsky130_fd_sc_hd__decap_12_65 VSS VDD VSS VDD sky130_fd_sc_hd__decap_12
Xsky130_fd_sc_hd__decap_12_10 VSS VDD VSS VDD sky130_fd_sc_hd__decap_12
Xsky130_fd_sc_hd__decap_3_48 VDD VSS VSS VDD sky130_fd_sc_hd__decap_3
Xsky130_fd_sc_hd__decap_3_37 VDD VSS VSS VDD sky130_fd_sc_hd__decap_3
Xsky130_fd_sc_hd__decap_3_26 VDD VSS VSS VDD sky130_fd_sc_hd__decap_3
Xsky130_fd_sc_hd__decap_3_15 VDD VSS VSS VDD sky130_fd_sc_hd__decap_3
Xsky130_fd_sc_hd__decap_12_33 VSS VDD VSS VDD sky130_fd_sc_hd__decap_12
Xsky130_fd_sc_hd__decap_12_22 VSS VDD VSS VDD sky130_fd_sc_hd__decap_12
Xsky130_fd_sc_hd__decap_12_66 VSS VDD VSS VDD sky130_fd_sc_hd__decap_12
Xsky130_fd_sc_hd__decap_12_11 VSS VDD VSS VDD sky130_fd_sc_hd__decap_12
Xsky130_fd_sc_hd__decap_12_44 VSS VDD VSS VDD sky130_fd_sc_hd__decap_12
Xsky130_fd_sc_hd__decap_12_55 VSS VDD VSS VDD sky130_fd_sc_hd__decap_12
Xsky130_fd_sc_hd__decap_3_49 VDD VSS VSS VDD sky130_fd_sc_hd__decap_3
Xsky130_fd_sc_hd__decap_3_38 VDD VSS VSS VDD sky130_fd_sc_hd__decap_3
Xsky130_fd_sc_hd__decap_3_27 VDD VSS VSS VDD sky130_fd_sc_hd__decap_3
Xsky130_fd_sc_hd__decap_3_16 VDD VSS VSS VDD sky130_fd_sc_hd__decap_3
Xsky130_fd_sc_hd__decap_4_70 VSS VDD VSS VDD sky130_fd_sc_hd__decap_4
Xsky130_fd_sc_hd__decap_12_23 VSS VDD VSS VDD sky130_fd_sc_hd__decap_12
Xsky130_fd_sc_hd__decap_12_12 VSS VDD VSS VDD sky130_fd_sc_hd__decap_12
Xsky130_fd_sc_hd__decap_12_45 VSS VDD VSS VDD sky130_fd_sc_hd__decap_12
Xsky130_fd_sc_hd__decap_12_56 VSS VDD VSS VDD sky130_fd_sc_hd__decap_12
Xsky130_fd_sc_hd__decap_12_34 VSS VDD VSS VDD sky130_fd_sc_hd__decap_12
Xsky130_fd_sc_hd__decap_3_39 VDD VSS VSS VDD sky130_fd_sc_hd__decap_3
Xsky130_fd_sc_hd__decap_3_28 VDD VSS VSS VDD sky130_fd_sc_hd__decap_3
Xsky130_fd_sc_hd__decap_3_17 VDD VSS VSS VDD sky130_fd_sc_hd__decap_3
Xsky130_fd_sc_hd__decap_4_60 VSS VDD VSS VDD sky130_fd_sc_hd__decap_4
Xsky130_fd_sc_hd__decap_4_71 VSS VDD VSS VDD sky130_fd_sc_hd__decap_4
Xsky130_fd_sc_hd__decap_12_24 VSS VDD VSS VDD sky130_fd_sc_hd__decap_12
Xsky130_fd_sc_hd__decap_12_13 VSS VDD VSS VDD sky130_fd_sc_hd__decap_12
Xsky130_fd_sc_hd__decap_12_46 VSS VDD VSS VDD sky130_fd_sc_hd__decap_12
Xsky130_fd_sc_hd__decap_12_57 VSS VDD VSS VDD sky130_fd_sc_hd__decap_12
Xsky130_fd_sc_hd__decap_12_35 VSS VDD VSS VDD sky130_fd_sc_hd__decap_12
Xsky130_fd_sc_hd__decap_3_29 VDD VSS VSS VDD sky130_fd_sc_hd__decap_3
Xsky130_fd_sc_hd__decap_3_18 VDD VSS VSS VDD sky130_fd_sc_hd__decap_3
Xsky130_fd_sc_hd__decap_4_61 VSS VDD VSS VDD sky130_fd_sc_hd__decap_4
Xsky130_fd_sc_hd__decap_4_72 VSS VDD VSS VDD sky130_fd_sc_hd__decap_4
Xsky130_fd_sc_hd__decap_4_50 VSS VDD VSS VDD sky130_fd_sc_hd__decap_4
Xsky130_fd_sc_hd__decap_12_25 VSS VDD VSS VDD sky130_fd_sc_hd__decap_12
Xsky130_fd_sc_hd__decap_12_14 VSS VDD VSS VDD sky130_fd_sc_hd__decap_12
Xsky130_fd_sc_hd__decap_12_47 VSS VDD VSS VDD sky130_fd_sc_hd__decap_12
Xsky130_fd_sc_hd__decap_12_36 VSS VDD VSS VDD sky130_fd_sc_hd__decap_12
Xsky130_fd_sc_hd__decap_12_58 VSS VDD VSS VDD sky130_fd_sc_hd__decap_12
Xsky130_fd_sc_hd__decap_3_19 VDD VSS VSS VDD sky130_fd_sc_hd__decap_3
Xsky130_fd_sc_hd__decap_4_62 VSS VDD VSS VDD sky130_fd_sc_hd__decap_4
Xsky130_fd_sc_hd__decap_4_73 VSS VDD VSS VDD sky130_fd_sc_hd__decap_4
Xsky130_fd_sc_hd__decap_4_40 VSS VDD VSS VDD sky130_fd_sc_hd__decap_4
Xsky130_fd_sc_hd__decap_4_51 VSS VDD VSS VDD sky130_fd_sc_hd__decap_4
Xsky130_fd_sc_hd__decap_12_15 VSS VDD VSS VDD sky130_fd_sc_hd__decap_12
Xsky130_fd_sc_hd__clkinvlp_2_0 VSS VDD p1d_b p1d VSS VDD sky130_fd_sc_hd__clkinvlp_2
Xsky130_fd_sc_hd__decap_12_48 VSS VDD VSS VDD sky130_fd_sc_hd__decap_12
Xsky130_fd_sc_hd__decap_12_37 VSS VDD VSS VDD sky130_fd_sc_hd__decap_12
Xsky130_fd_sc_hd__decap_12_59 VSS VDD VSS VDD sky130_fd_sc_hd__decap_12
Xsky130_fd_sc_hd__decap_12_26 VSS VDD VSS VDD sky130_fd_sc_hd__decap_12
Xsky130_fd_sc_hd__clkinv_4_0 sky130_fd_sc_hd__clkinv_4_2/Y sky130_fd_sc_hd__clkinv_4_0/Y
+ VDD VSS VSS VDD sky130_fd_sc_hd__clkinv_4
Xsky130_fd_sc_hd__decap_4_74 VSS VDD VSS VDD sky130_fd_sc_hd__decap_4
Xsky130_fd_sc_hd__decap_4_63 VSS VDD VSS VDD sky130_fd_sc_hd__decap_4
Xsky130_fd_sc_hd__decap_4_30 VSS VDD VSS VDD sky130_fd_sc_hd__decap_4
Xsky130_fd_sc_hd__decap_4_41 VSS VDD VSS VDD sky130_fd_sc_hd__decap_4
Xsky130_fd_sc_hd__decap_4_52 VSS VDD VSS VDD sky130_fd_sc_hd__decap_4
Xsky130_fd_sc_hd__decap_12_16 VSS VDD VSS VDD sky130_fd_sc_hd__decap_12
Xsky130_fd_sc_hd__decap_12_49 VSS VDD VSS VDD sky130_fd_sc_hd__decap_12
Xsky130_fd_sc_hd__decap_12_38 VSS VDD VSS VDD sky130_fd_sc_hd__decap_12
Xsky130_fd_sc_hd__decap_12_27 VSS VDD VSS VDD sky130_fd_sc_hd__decap_12
Xsky130_fd_sc_hd__clkinvlp_2_1 VSS VDD p2d_b p2d VSS VDD sky130_fd_sc_hd__clkinvlp_2
Xsky130_fd_sc_hd__clkinv_4_1 sky130_fd_sc_hd__clkinv_4_3/Y sky130_fd_sc_hd__clkinv_4_1/Y
+ VDD VSS VSS VDD sky130_fd_sc_hd__clkinv_4
Xsky130_fd_sc_hd__decap_4_20 VSS VDD VSS VDD sky130_fd_sc_hd__decap_4
Xsky130_fd_sc_hd__decap_4_64 VSS VDD VSS VDD sky130_fd_sc_hd__decap_4
Xsky130_fd_sc_hd__decap_4_42 VSS VDD VSS VDD sky130_fd_sc_hd__decap_4
Xsky130_fd_sc_hd__decap_4_53 VSS VDD VSS VDD sky130_fd_sc_hd__decap_4
Xsky130_fd_sc_hd__decap_4_31 VSS VDD VSS VDD sky130_fd_sc_hd__decap_4
Xsky130_fd_sc_hd__decap_12_39 VSS VDD VSS VDD sky130_fd_sc_hd__decap_12
Xsky130_fd_sc_hd__decap_12_28 VSS VDD VSS VDD sky130_fd_sc_hd__decap_12
Xsky130_fd_sc_hd__decap_12_17 VSS VDD VSS VDD sky130_fd_sc_hd__decap_12
Xsky130_fd_sc_hd__clkinvlp_2_2 VSS VDD Bd_b Bd VSS VDD sky130_fd_sc_hd__clkinvlp_2
Xsky130_fd_sc_hd__clkinv_4_2 sky130_fd_sc_hd__nand2_1_7/Y sky130_fd_sc_hd__clkinv_4_2/Y
+ VDD VSS VSS VDD sky130_fd_sc_hd__clkinv_4
Xsky130_fd_sc_hd__decap_4_10 VSS VDD VSS VDD sky130_fd_sc_hd__decap_4
Xsky130_fd_sc_hd__decap_4_21 VSS VDD VSS VDD sky130_fd_sc_hd__decap_4
Xsky130_fd_sc_hd__decap_4_65 VSS VDD VSS VDD sky130_fd_sc_hd__decap_4
Xsky130_fd_sc_hd__decap_4_43 VSS VDD VSS VDD sky130_fd_sc_hd__decap_4
Xsky130_fd_sc_hd__decap_4_54 VSS VDD VSS VDD sky130_fd_sc_hd__decap_4
Xsky130_fd_sc_hd__decap_4_32 VSS VDD VSS VDD sky130_fd_sc_hd__decap_4
Xsky130_fd_sc_hd__clkinvlp_2_3 VSS VDD Ad_b Ad VSS VDD sky130_fd_sc_hd__clkinvlp_2
Xsky130_fd_sc_hd__decap_12_29 VSS VDD VSS VDD sky130_fd_sc_hd__decap_12
Xsky130_fd_sc_hd__decap_12_18 VSS VDD VSS VDD sky130_fd_sc_hd__decap_12
Xsky130_fd_sc_hd__decap_3_0 VDD VSS VSS VDD sky130_fd_sc_hd__decap_3
Xsky130_fd_sc_hd__clkinv_4_3 sky130_fd_sc_hd__nand2_1_8/Y sky130_fd_sc_hd__clkinv_4_3/Y
+ VDD VSS VSS VDD sky130_fd_sc_hd__clkinv_4
Xsky130_fd_sc_hd__decap_4_11 VSS VDD VSS VDD sky130_fd_sc_hd__decap_4
Xsky130_fd_sc_hd__decap_4_22 VSS VDD VSS VDD sky130_fd_sc_hd__decap_4
Xsky130_fd_sc_hd__decap_4_44 VSS VDD VSS VDD sky130_fd_sc_hd__decap_4
Xsky130_fd_sc_hd__decap_4_55 VSS VDD VSS VDD sky130_fd_sc_hd__decap_4
Xsky130_fd_sc_hd__decap_4_33 VSS VDD VSS VDD sky130_fd_sc_hd__decap_4
Xsky130_fd_sc_hd__decap_4_66 VSS VDD VSS VDD sky130_fd_sc_hd__decap_4
Xsky130_fd_sc_hd__clkinvlp_2_4 VSS VDD sky130_fd_sc_hd__nand2_1_8/A sky130_fd_sc_hd__nand2_1_2/Y
+ VSS VDD sky130_fd_sc_hd__clkinvlp_2
Xsky130_fd_sc_hd__decap_12_19 VSS VDD VSS VDD sky130_fd_sc_hd__decap_12
Xsky130_fd_sc_hd__decap_3_1 VDD VSS VSS VDD sky130_fd_sc_hd__decap_3
Xsky130_fd_sc_hd__decap_4_12 VSS VDD VSS VDD sky130_fd_sc_hd__decap_4
Xsky130_fd_sc_hd__decap_4_45 VSS VDD VSS VDD sky130_fd_sc_hd__decap_4
Xsky130_fd_sc_hd__decap_4_56 VSS VDD VSS VDD sky130_fd_sc_hd__decap_4
Xsky130_fd_sc_hd__decap_4_34 VSS VDD VSS VDD sky130_fd_sc_hd__decap_4
Xsky130_fd_sc_hd__decap_4_67 VSS VDD VSS VDD sky130_fd_sc_hd__decap_4
Xsky130_fd_sc_hd__decap_4_23 VSS VDD VSS VDD sky130_fd_sc_hd__decap_4
Xsky130_fd_sc_hd__clkinvlp_2_5 VSS VDD sky130_fd_sc_hd__nand2_1_5/B sky130_fd_sc_hd__nand2_1_6/A
+ VSS VDD sky130_fd_sc_hd__clkinvlp_2
Xsky130_fd_sc_hd__decap_3_2 VDD VSS VSS VDD sky130_fd_sc_hd__decap_3
Xsky130_fd_sc_hd__decap_4_35 VSS VDD VSS VDD sky130_fd_sc_hd__decap_4
Xsky130_fd_sc_hd__decap_4_57 VSS VDD VSS VDD sky130_fd_sc_hd__decap_4
Xsky130_fd_sc_hd__decap_4_46 VSS VDD VSS VDD sky130_fd_sc_hd__decap_4
Xsky130_fd_sc_hd__decap_4_68 VSS VDD VSS VDD sky130_fd_sc_hd__decap_4
Xsky130_fd_sc_hd__decap_4_24 VSS VDD VSS VDD sky130_fd_sc_hd__decap_4
Xsky130_fd_sc_hd__decap_4_13 VSS VDD VSS VDD sky130_fd_sc_hd__decap_4
Xsky130_fd_sc_hd__clkinvlp_2_6 VSS VDD B B_b VSS VDD sky130_fd_sc_hd__clkinvlp_2
Xsky130_fd_sc_hd__decap_3_3 VDD VSS VSS VDD sky130_fd_sc_hd__decap_3
Xsky130_fd_sc_hd__decap_4_36 VSS VDD VSS VDD sky130_fd_sc_hd__decap_4
Xsky130_fd_sc_hd__decap_4_47 VSS VDD VSS VDD sky130_fd_sc_hd__decap_4
Xsky130_fd_sc_hd__decap_4_58 VSS VDD VSS VDD sky130_fd_sc_hd__decap_4
Xsky130_fd_sc_hd__decap_4_25 VSS VDD VSS VDD sky130_fd_sc_hd__decap_4
Xsky130_fd_sc_hd__decap_4_69 VSS VDD VSS VDD sky130_fd_sc_hd__decap_4
Xsky130_fd_sc_hd__decap_4_14 VSS VDD VSS VDD sky130_fd_sc_hd__decap_4
Xsky130_fd_sc_hd__clkinvlp_2_7 VSS VDD A A_b VSS VDD sky130_fd_sc_hd__clkinvlp_2
Xsky130_fd_sc_hd__decap_3_4 VDD VSS VSS VDD sky130_fd_sc_hd__decap_3
Xsky130_fd_sc_hd__decap_4_26 VSS VDD VSS VDD sky130_fd_sc_hd__decap_4
Xsky130_fd_sc_hd__decap_4_37 VSS VDD VSS VDD sky130_fd_sc_hd__decap_4
Xsky130_fd_sc_hd__decap_4_48 VSS VDD VSS VDD sky130_fd_sc_hd__decap_4
Xsky130_fd_sc_hd__decap_4_59 VSS VDD VSS VDD sky130_fd_sc_hd__decap_4
Xsky130_fd_sc_hd__decap_4_15 VSS VDD VSS VDD sky130_fd_sc_hd__decap_4
Xsky130_fd_sc_hd__clkinvlp_2_8 VSS VDD sky130_fd_sc_hd__nand2_1_0/B sky130_fd_sc_hd__clkinv_4_2/Y
+ VSS VDD sky130_fd_sc_hd__clkinvlp_2
Xsky130_fd_sc_hd__decap_3_5 VDD VSS VSS VDD sky130_fd_sc_hd__decap_3
Xsky130_fd_sc_hd__decap_4_27 VSS VDD VSS VDD sky130_fd_sc_hd__decap_4
Xsky130_fd_sc_hd__decap_4_49 VSS VDD VSS VDD sky130_fd_sc_hd__decap_4
Xsky130_fd_sc_hd__decap_4_38 VSS VDD VSS VDD sky130_fd_sc_hd__decap_4
Xsky130_fd_sc_hd__decap_4_16 VSS VDD VSS VDD sky130_fd_sc_hd__decap_4
Xsky130_fd_sc_hd__clkinvlp_2_9 VSS VDD sky130_fd_sc_hd__nand2_1_1/B sky130_fd_sc_hd__clkinv_4_3/Y
+ VSS VDD sky130_fd_sc_hd__clkinvlp_2
Xsky130_fd_sc_hd__decap_3_6 VDD VSS VSS VDD sky130_fd_sc_hd__decap_3
Xsky130_fd_sc_hd__decap_4_28 VSS VDD VSS VDD sky130_fd_sc_hd__decap_4
Xsky130_fd_sc_hd__decap_4_39 VSS VDD VSS VDD sky130_fd_sc_hd__decap_4
Xsky130_fd_sc_hd__decap_4_17 VSS VDD VSS VDD sky130_fd_sc_hd__decap_4
Xsky130_fd_sc_hd__decap_12_0 VSS VDD VSS VDD sky130_fd_sc_hd__decap_12
Xsky130_fd_sc_hd__decap_3_7 VDD VSS VSS VDD sky130_fd_sc_hd__decap_3
Xsky130_fd_sc_hd__dfxbp_1_0 VSS VDD sky130_fd_sc_hd__dfxbp_1_0/Q_N sky130_fd_sc_hd__nand2_1_6/A
+ p2 sky130_fd_sc_hd__mux2_1_0/S VSS VDD sky130_fd_sc_hd__dfxbp_1
Xsky130_fd_sc_hd__decap_8_60 VDD VSS VSS VDD sky130_fd_sc_hd__decap_8
Xsky130_fd_sc_hd__decap_4_29 VSS VDD VSS VDD sky130_fd_sc_hd__decap_4
Xsky130_fd_sc_hd__decap_4_18 VSS VDD VSS VDD sky130_fd_sc_hd__decap_4
Xsky130_fd_sc_hd__decap_12_1 VSS VDD VSS VDD sky130_fd_sc_hd__decap_12
Xsky130_fd_sc_hd__decap_3_8 VDD VSS VSS VDD sky130_fd_sc_hd__decap_3
Xsky130_fd_sc_hd__dfxbp_1_1 VSS VDD sky130_fd_sc_hd__dfxbp_1_1/D sky130_fd_sc_hd__dfxbp_1_1/D
+ clk sky130_fd_sc_hd__nand2_1_6/A VSS VDD sky130_fd_sc_hd__dfxbp_1
Xsky130_fd_sc_hd__decap_8_50 VDD VSS VSS VDD sky130_fd_sc_hd__decap_8
Xsky130_fd_sc_hd__decap_8_61 VDD VSS VSS VDD sky130_fd_sc_hd__decap_8
Xsky130_fd_sc_hd__decap_4_19 VSS VDD VSS VDD sky130_fd_sc_hd__decap_4
Xsky130_fd_sc_hd__decap_12_2 VSS VDD VSS VDD sky130_fd_sc_hd__decap_12
Xsky130_fd_sc_hd__decap_3_9 VDD VSS VSS VDD sky130_fd_sc_hd__decap_3
Xsky130_fd_sc_hd__decap_8_40 VDD VSS VSS VDD sky130_fd_sc_hd__decap_8
Xsky130_fd_sc_hd__decap_8_62 VDD VSS VSS VDD sky130_fd_sc_hd__decap_8
Xsky130_fd_sc_hd__decap_8_51 VDD VSS VSS VDD sky130_fd_sc_hd__decap_8
Xsky130_fd_sc_hd__decap_12_3 VSS VDD VSS VDD sky130_fd_sc_hd__decap_12
Xsky130_fd_sc_hd__decap_8_0 VDD VSS VSS VDD sky130_fd_sc_hd__decap_8
Xsky130_fd_sc_hd__decap_8_30 VDD VSS VSS VDD sky130_fd_sc_hd__decap_8
Xsky130_fd_sc_hd__decap_8_63 VDD VSS VSS VDD sky130_fd_sc_hd__decap_8
Xsky130_fd_sc_hd__decap_8_52 VDD VSS VSS VDD sky130_fd_sc_hd__decap_8
Xsky130_fd_sc_hd__decap_8_41 VDD VSS VSS VDD sky130_fd_sc_hd__decap_8
Xsky130_fd_sc_hd__clkbuf_16_0 p1_b sky130_fd_sc_hd__clkinv_4_0/Y VSS VDD VSS VDD sky130_fd_sc_hd__clkbuf_16
Xsky130_fd_sc_hd__decap_12_4 VSS VDD VSS VDD sky130_fd_sc_hd__decap_12
Xsky130_fd_sc_hd__decap_8_1 VDD VSS VSS VDD sky130_fd_sc_hd__decap_8
Xsky130_fd_sc_hd__decap_8_31 VDD VSS VSS VDD sky130_fd_sc_hd__decap_8
Xsky130_fd_sc_hd__decap_8_20 VDD VSS VSS VDD sky130_fd_sc_hd__decap_8
Xsky130_fd_sc_hd__decap_8_64 VDD VSS VSS VDD sky130_fd_sc_hd__decap_8
Xsky130_fd_sc_hd__decap_8_53 VDD VSS VSS VDD sky130_fd_sc_hd__decap_8
Xsky130_fd_sc_hd__decap_8_42 VDD VSS VSS VDD sky130_fd_sc_hd__decap_8
Xsky130_fd_sc_hd__clkbuf_16_1 p1 sky130_fd_sc_hd__clkinv_4_2/Y VSS VDD VSS VDD sky130_fd_sc_hd__clkbuf_16
Xsky130_fd_sc_hd__decap_12_5 VSS VDD VSS VDD sky130_fd_sc_hd__decap_12
Xsky130_fd_sc_hd__decap_8_2 VDD VSS VSS VDD sky130_fd_sc_hd__decap_8
Xsky130_fd_sc_hd__decap_8_21 VDD VSS VSS VDD sky130_fd_sc_hd__decap_8
Xsky130_fd_sc_hd__decap_8_65 VDD VSS VSS VDD sky130_fd_sc_hd__decap_8
Xsky130_fd_sc_hd__decap_8_10 VDD VSS VSS VDD sky130_fd_sc_hd__decap_8
Xsky130_fd_sc_hd__decap_8_54 VDD VSS VSS VDD sky130_fd_sc_hd__decap_8
Xsky130_fd_sc_hd__decap_8_43 VDD VSS VSS VDD sky130_fd_sc_hd__decap_8
Xsky130_fd_sc_hd__decap_8_32 VDD VSS VSS VDD sky130_fd_sc_hd__decap_8
Xsky130_fd_sc_hd__decap_12_6 VSS VDD VSS VDD sky130_fd_sc_hd__decap_12
Xsky130_fd_sc_hd__clkbuf_16_2 p2 sky130_fd_sc_hd__clkinv_4_3/Y VSS VDD VSS VDD sky130_fd_sc_hd__clkbuf_16
Xsky130_fd_sc_hd__decap_8_3 VDD VSS VSS VDD sky130_fd_sc_hd__decap_8
Xsky130_fd_sc_hd__decap_6_0 VDD VSS VSS VDD sky130_fd_sc_hd__decap_6
Xsky130_fd_sc_hd__decap_8_22 VDD VSS VSS VDD sky130_fd_sc_hd__decap_8
Xsky130_fd_sc_hd__decap_8_55 VDD VSS VSS VDD sky130_fd_sc_hd__decap_8
Xsky130_fd_sc_hd__decap_8_11 VDD VSS VSS VDD sky130_fd_sc_hd__decap_8
Xsky130_fd_sc_hd__decap_8_66 VDD VSS VSS VDD sky130_fd_sc_hd__decap_8
Xsky130_fd_sc_hd__decap_8_44 VDD VSS VSS VDD sky130_fd_sc_hd__decap_8
Xsky130_fd_sc_hd__decap_8_33 VDD VSS VSS VDD sky130_fd_sc_hd__decap_8
Xsky130_fd_sc_hd__decap_12_7 VSS VDD VSS VDD sky130_fd_sc_hd__decap_12
Xsky130_fd_sc_hd__clkbuf_16_3 p2_b sky130_fd_sc_hd__clkinv_4_1/Y VSS VDD VSS VDD sky130_fd_sc_hd__clkbuf_16
Xsky130_fd_sc_hd__decap_8_4 VDD VSS VSS VDD sky130_fd_sc_hd__decap_8
Xsky130_fd_sc_hd__decap_6_1 VDD VSS VSS VDD sky130_fd_sc_hd__decap_6
Xsky130_fd_sc_hd__decap_8_12 VDD VSS VSS VDD sky130_fd_sc_hd__decap_8
Xsky130_fd_sc_hd__decap_8_56 VDD VSS VSS VDD sky130_fd_sc_hd__decap_8
Xsky130_fd_sc_hd__decap_8_45 VDD VSS VSS VDD sky130_fd_sc_hd__decap_8
Xsky130_fd_sc_hd__decap_8_34 VDD VSS VSS VDD sky130_fd_sc_hd__decap_8
Xsky130_fd_sc_hd__decap_8_23 VDD VSS VSS VDD sky130_fd_sc_hd__decap_8
Xsky130_fd_sc_hd__decap_12_8 VSS VDD VSS VDD sky130_fd_sc_hd__decap_12
Xsky130_fd_sc_hd__decap_8_5 VDD VSS VSS VDD sky130_fd_sc_hd__decap_8
Xsky130_fd_sc_hd__decap_6_2 VDD VSS VSS VDD sky130_fd_sc_hd__decap_6
Xsky130_fd_sc_hd__decap_8_57 VDD VSS VSS VDD sky130_fd_sc_hd__decap_8
Xsky130_fd_sc_hd__decap_8_13 VDD VSS VSS VDD sky130_fd_sc_hd__decap_8
Xsky130_fd_sc_hd__decap_8_46 VDD VSS VSS VDD sky130_fd_sc_hd__decap_8
Xsky130_fd_sc_hd__decap_8_35 VDD VSS VSS VDD sky130_fd_sc_hd__decap_8
Xsky130_fd_sc_hd__decap_8_24 VDD VSS VSS VDD sky130_fd_sc_hd__decap_8
Xsky130_fd_sc_hd__decap_12_9 VSS VDD VSS VDD sky130_fd_sc_hd__decap_12
Xsky130_fd_sc_hd__decap_8_6 VDD VSS VSS VDD sky130_fd_sc_hd__decap_8
Xsky130_fd_sc_hd__decap_6_3 VDD VSS VSS VDD sky130_fd_sc_hd__decap_6
Xsky130_fd_sc_hd__decap_4_0 VSS VDD VSS VDD sky130_fd_sc_hd__decap_4
Xsky130_fd_sc_hd__decap_8_14 VDD VSS VSS VDD sky130_fd_sc_hd__decap_8
Xsky130_fd_sc_hd__decap_8_58 VDD VSS VSS VDD sky130_fd_sc_hd__decap_8
Xsky130_fd_sc_hd__decap_8_47 VDD VSS VSS VDD sky130_fd_sc_hd__decap_8
Xsky130_fd_sc_hd__decap_8_36 VDD VSS VSS VDD sky130_fd_sc_hd__decap_8
Xsky130_fd_sc_hd__decap_8_25 VDD VSS VSS VDD sky130_fd_sc_hd__decap_8
Xsky130_fd_sc_hd__decap_8_7 VDD VSS VSS VDD sky130_fd_sc_hd__decap_8
Xsky130_fd_sc_hd__decap_6_4 VDD VSS VSS VDD sky130_fd_sc_hd__decap_6
Xsky130_fd_sc_hd__decap_4_1 VSS VDD VSS VDD sky130_fd_sc_hd__decap_4
Xsky130_fd_sc_hd__decap_8_48 VDD VSS VSS VDD sky130_fd_sc_hd__decap_8
Xsky130_fd_sc_hd__decap_8_37 VDD VSS VSS VDD sky130_fd_sc_hd__decap_8
Xsky130_fd_sc_hd__decap_8_26 VDD VSS VSS VDD sky130_fd_sc_hd__decap_8
Xsky130_fd_sc_hd__decap_8_15 VDD VSS VSS VDD sky130_fd_sc_hd__decap_8
Xsky130_fd_sc_hd__decap_8_59 VDD VSS VSS VDD sky130_fd_sc_hd__decap_8
Xsky130_fd_sc_hd__decap_8_8 VDD VSS VSS VDD sky130_fd_sc_hd__decap_8
Xsky130_fd_sc_hd__decap_6_5 VDD VSS VSS VDD sky130_fd_sc_hd__decap_6
Xsky130_fd_sc_hd__decap_4_2 VSS VDD VSS VDD sky130_fd_sc_hd__decap_4
Xsky130_fd_sc_hd__decap_8_49 VDD VSS VSS VDD sky130_fd_sc_hd__decap_8
Xsky130_fd_sc_hd__decap_8_27 VDD VSS VSS VDD sky130_fd_sc_hd__decap_8
Xsky130_fd_sc_hd__decap_8_38 VDD VSS VSS VDD sky130_fd_sc_hd__decap_8
Xsky130_fd_sc_hd__decap_8_16 VDD VSS VSS VDD sky130_fd_sc_hd__decap_8
Xsky130_fd_sc_hd__nand2_1_0 p1d sky130_fd_sc_hd__nand2_1_0/B sky130_fd_sc_hd__nand2_1_7/Y
+ VSS VDD VSS VDD sky130_fd_sc_hd__nand2_1
Xsky130_fd_sc_hd__decap_8_9 VDD VSS VSS VDD sky130_fd_sc_hd__decap_8
Xsky130_fd_sc_hd__decap_6_6 VDD VSS VSS VDD sky130_fd_sc_hd__decap_6
Xsky130_fd_sc_hd__decap_4_3 VSS VDD VSS VDD sky130_fd_sc_hd__decap_4
Xsky130_fd_sc_hd__decap_3_50 VDD VSS VSS VDD sky130_fd_sc_hd__decap_3
Xsky130_fd_sc_hd__decap_8_39 VDD VSS VSS VDD sky130_fd_sc_hd__decap_8
Xsky130_fd_sc_hd__decap_8_28 VDD VSS VSS VDD sky130_fd_sc_hd__decap_8
Xsky130_fd_sc_hd__decap_8_17 VDD VSS VSS VDD sky130_fd_sc_hd__decap_8
Xsky130_fd_sc_hd__nand2_1_1 p2d sky130_fd_sc_hd__nand2_1_1/B sky130_fd_sc_hd__nand2_1_8/Y
+ VSS VDD VSS VDD sky130_fd_sc_hd__nand2_1
Xsky130_fd_sc_hd__decap_6_7 VDD VSS VSS VDD sky130_fd_sc_hd__decap_6
Xsky130_fd_sc_hd__clkinv_1_0 sky130_fd_sc_hd__nand2_1_7/A clk VSS VDD VSS VDD sky130_fd_sc_hd__clkinv_1
Xsky130_fd_sc_hd__decap_4_4 VSS VDD VSS VDD sky130_fd_sc_hd__decap_4
Xsky130_fd_sc_hd__decap_3_40 VDD VSS VSS VDD sky130_fd_sc_hd__decap_3