* NGSPICE file created from clock_generator.ext - technology: sky130A

.subckt sky130_fd_sc_hd__decap_6 VPWR VGND VNB VPB
X0 VPWR VGND VPWR VPB sky130_fd_pr__pfet_01v8_hvt ad=0p pd=0u as=0p ps=0u w=870000u l=1.97e+06u
X1 VGND VPWR VGND VNB sky130_fd_pr__nfet_01v8 ad=0p pd=0u as=0p ps=0u w=550000u l=1.97e+06u
.ends

.subckt sky130_fd_sc_hd__decap_3 VPWR VGND VNB VPB
X0 VPWR VGND VPWR VPB sky130_fd_pr__pfet_01v8_hvt ad=0p pd=0u as=0p ps=0u w=870000u l=590000u
X1 VGND VPWR VGND VNB sky130_fd_pr__nfet_01v8 ad=0p pd=0u as=0p ps=0u w=550000u l=590000u
.ends

.subckt sky130_fd_sc_hd__decap_12 VGND VPWR VNB VPB
X0 VPWR VGND VPWR VPB sky130_fd_pr__pfet_01v8_hvt ad=0p pd=0u as=0p ps=0u w=870000u l=4.73e+06u
X1 VGND VPWR VGND VNB sky130_fd_pr__nfet_01v8 ad=0p pd=0u as=0p ps=0u w=550000u l=4.73e+06u
.ends

.subckt sky130_fd_sc_hd__clkdlybuf4s50_1 A X VGND VPWR VNB VPB
X0 a_283_47# a_27_47# VPWR VPB sky130_fd_pr__pfet_01v8_hvt ad=0p pd=0u as=0p ps=0u w=820000u l=500000u
X1 VPWR A a_27_47# VPB sky130_fd_pr__pfet_01v8_hvt ad=0p pd=0u as=0p ps=0u w=1e+06u l=150000u
X2 VPWR a_283_47# a_390_47# VPB sky130_fd_pr__pfet_01v8_hvt ad=0p pd=0u as=0p ps=0u w=820000u l=500000u
X3 VGND a_283_47# a_390_47# VNB sky130_fd_pr__nfet_01v8 ad=0p pd=0u as=0p ps=0u w=650000u l=500000u
X4 X a_390_47# VPWR VPB sky130_fd_pr__pfet_01v8_hvt ad=0p pd=0u as=0p ps=0u w=1e+06u l=150000u
X5 VGND A a_27_47# VNB sky130_fd_pr__nfet_01v8 ad=0p pd=0u as=0p ps=0u w=420000u l=150000u
X6 a_283_47# a_27_47# VGND VNB sky130_fd_pr__nfet_01v8 ad=0p pd=0u as=0p ps=0u w=650000u l=500000u
X7 X a_390_47# VGND VNB sky130_fd_pr__nfet_01v8 ad=0p pd=0u as=0p ps=0u w=420000u l=150000u
.ends

.subckt sky130_fd_sc_hd__decap_4 VGND VPWR VNB VPB
X0 VPWR VGND VPWR VPB sky130_fd_pr__pfet_01v8_hvt ad=0p pd=0u as=0p ps=0u w=870000u l=1.05e+06u
X1 VGND VPWR VGND VNB sky130_fd_pr__nfet_01v8 ad=0p pd=0u as=0p ps=0u w=550000u l=1.05e+06u
.ends

.subckt sky130_fd_sc_hd__clkinv_16 Y A VGND VPWR VNB VPB
X0 VGND A Y VNB sky130_fd_pr__nfet_01v8 ad=0p pd=0u as=0p ps=0u w=420000u l=150000u
X1 Y A VPWR VPB sky130_fd_pr__pfet_01v8_hvt ad=0p pd=0u as=0p ps=0u w=1e+06u l=150000u
X2 VPWR A Y VPB sky130_fd_pr__pfet_01v8_hvt ad=0p pd=0u as=0p ps=0u w=1e+06u l=150000u
X3 Y A VPWR VPB sky130_fd_pr__pfet_01v8_hvt ad=0p pd=0u as=0p ps=0u w=1e+06u l=150000u
X4 VGND A Y VNB sky130_fd_pr__nfet_01v8 ad=0p pd=0u as=0p ps=0u w=420000u l=150000u
X5 VPWR A Y VPB sky130_fd_pr__pfet_01v8_hvt ad=0p pd=0u as=0p ps=0u w=1e+06u l=150000u
X6 Y A VGND VNB sky130_fd_pr__nfet_01v8 ad=0p pd=0u as=0p ps=0u w=420000u l=150000u
X7 VGND A Y VNB sky130_fd_pr__nfet_01v8 ad=0p pd=0u as=0p ps=0u w=420000u l=150000u
X8 VPWR A Y VPB sky130_fd_pr__pfet_01v8_hvt ad=0p pd=0u as=0p ps=0u w=1e+06u l=150000u
X9 VPWR A Y VPB sky130_fd_pr__pfet_01v8_hvt ad=0p pd=0u as=0p ps=0u w=1e+06u l=150000u
X10 Y A VGND VNB sky130_fd_pr__nfet_01v8 ad=0p pd=0u as=0p ps=0u w=420000u l=150000u
X11 Y A VPWR VPB sky130_fd_pr__pfet_01v8_hvt ad=0p pd=0u as=0p ps=0u w=1e+06u l=150000u
X12 VPWR A Y VPB sky130_fd_pr__pfet_01v8_hvt ad=0p pd=0u as=0p ps=0u w=1e+06u l=150000u
X13 VGND A Y VNB sky130_fd_pr__nfet_01v8 ad=0p pd=0u as=0p ps=0u w=420000u l=150000u
X14 Y A VPWR VPB sky130_fd_pr__pfet_01v8_hvt ad=0p pd=0u as=0p ps=0u w=1e+06u l=150000u
X15 VPWR A Y VPB sky130_fd_pr__pfet_01v8_hvt ad=0p pd=0u as=0p ps=0u w=1e+06u l=150000u
X16 Y A VPWR VPB sky130_fd_pr__pfet_01v8_hvt ad=0p pd=0u as=0p ps=0u w=1e+06u l=150000u
X17 Y A VPWR VPB sky130_fd_pr__pfet_01v8_hvt ad=0p pd=0u as=0p ps=0u w=1e+06u l=150000u
X18 Y A VGND VNB sky130_fd_pr__nfet_01v8 ad=0p pd=0u as=0p ps=0u w=420000u l=150000u
X19 VGND A Y VNB sky130_fd_pr__nfet_01v8 ad=0p pd=0u as=0p ps=0u w=420000u l=150000u
X20 Y A VGND VNB sky130_fd_pr__nfet_01v8 ad=0p pd=0u as=0p ps=0u w=420000u l=150000u
X21 VGND A Y VNB sky130_fd_pr__nfet_01v8 ad=0p pd=0u as=0p ps=0u w=420000u l=150000u
X22 Y A VPWR VPB sky130_fd_pr__pfet_01v8_hvt ad=0p pd=0u as=0p ps=0u w=1e+06u l=150000u
X23 VPWR A Y VPB sky130_fd_pr__pfet_01v8_hvt ad=0p pd=0u as=0p ps=0u w=1e+06u l=150000u
X24 Y A VPWR VPB sky130_fd_pr__pfet_01v8_hvt ad=0p pd=0u as=0p ps=0u w=1e+06u l=150000u
X25 Y A VPWR VPB sky130_fd_pr__pfet_01v8_hvt ad=0p pd=0u as=0p ps=0u w=1e+06u l=150000u
X26 VPWR A Y VPB sky130_fd_pr__pfet_01v8_hvt ad=0p pd=0u as=0p ps=0u w=1e+06u l=150000u
X27 Y A VGND VNB sky130_fd_pr__nfet_01v8 ad=0p pd=0u as=0p ps=0u w=420000u l=150000u
X28 Y A VPWR VPB sky130_fd_pr__pfet_01v8_hvt ad=0p pd=0u as=0p ps=0u w=1e+06u l=150000u
X29 VPWR A Y VPB sky130_fd_pr__pfet_01v8_hvt ad=0p pd=0u as=0p ps=0u w=1e+06u l=150000u
X30 VPWR A Y VPB sky130_fd_pr__pfet_01v8_hvt ad=0p pd=0u as=0p ps=0u w=1e+06u l=150000u
X31 Y A VGND VNB sky130_fd_pr__nfet_01v8 ad=0p pd=0u as=0p ps=0u w=420000u l=150000u
X32 VGND A Y VNB sky130_fd_pr__nfet_01v8 ad=0p pd=0u as=0p ps=0u w=420000u l=150000u
X33 VPWR A Y VPB sky130_fd_pr__pfet_01v8_hvt ad=0p pd=0u as=0p ps=0u w=1e+06u l=150000u
X34 Y A VGND VNB sky130_fd_pr__nfet_01v8 ad=0p pd=0u as=0p ps=0u w=420000u l=150000u
X35 Y A VPWR VPB sky130_fd_pr__pfet_01v8_hvt ad=0p pd=0u as=0p ps=0u w=1e+06u l=150000u
X36 Y A VGND VNB sky130_fd_pr__nfet_01v8 ad=0p pd=0u as=0p ps=0u w=420000u l=150000u
X37 VPWR A Y VPB sky130_fd_pr__pfet_01v8_hvt ad=0p pd=0u as=0p ps=0u w=1e+06u l=150000u
X38 Y A VPWR VPB sky130_fd_pr__pfet_01v8_hvt ad=0p pd=0u as=0p ps=0u w=1e+06u l=150000u
X39 VGND A Y VNB sky130_fd_pr__nfet_01v8 ad=0p pd=0u as=0p ps=0u w=420000u l=150000u
.ends

.subckt sky130_fd_sc_hd__nand2_4 Y A B VGND VPWR VNB VPB
X0 a_27_47# A Y VNB sky130_fd_pr__nfet_01v8 ad=0p pd=0u as=0p ps=0u w=650000u l=150000u
X1 a_27_47# A Y VNB sky130_fd_pr__nfet_01v8 ad=0p pd=0u as=0p ps=0u w=650000u l=150000u
X2 Y A VPWR VPB sky130_fd_pr__pfet_01v8_hvt ad=0p pd=0u as=0p ps=0u w=1e+06u l=150000u
X3 VPWR B Y VPB sky130_fd_pr__pfet_01v8_hvt ad=0p pd=0u as=0p ps=0u w=1e+06u l=150000u
X4 Y B VPWR VPB sky130_fd_pr__pfet_01v8_hvt ad=0p pd=0u as=0p ps=0u w=1e+06u l=150000u
X5 VPWR B Y VPB sky130_fd_pr__pfet_01v8_hvt ad=0p pd=0u as=0p ps=0u w=1e+06u l=150000u
X6 a_27_47# B VGND VNB sky130_fd_pr__nfet_01v8 ad=0p pd=0u as=0p ps=0u w=650000u l=150000u
X7 a_27_47# B VGND VNB sky130_fd_pr__nfet_01v8 ad=0p pd=0u as=0p ps=0u w=650000u l=150000u
X8 VPWR A Y VPB sky130_fd_pr__pfet_01v8_hvt ad=0p pd=0u as=0p ps=0u w=1e+06u l=150000u
X9 VGND B a_27_47# VNB sky130_fd_pr__nfet_01v8 ad=0p pd=0u as=0p ps=0u w=650000u l=150000u
X10 Y A a_27_47# VNB sky130_fd_pr__nfet_01v8 ad=0p pd=0u as=0p ps=0u w=650000u l=150000u
X11 Y A VPWR VPB sky130_fd_pr__pfet_01v8_hvt ad=0p pd=0u as=0p ps=0u w=1e+06u l=150000u
X12 Y A a_27_47# VNB sky130_fd_pr__nfet_01v8 ad=0p pd=0u as=0p ps=0u w=650000u l=150000u
X13 VPWR A Y VPB sky130_fd_pr__pfet_01v8_hvt ad=0p pd=0u as=0p ps=0u w=1e+06u l=150000u
X14 Y B VPWR VPB sky130_fd_pr__pfet_01v8_hvt ad=0p pd=0u as=0p ps=0u w=1e+06u l=150000u
X15 VGND B a_27_47# VNB sky130_fd_pr__nfet_01v8 ad=0p pd=0u as=0p ps=0u w=650000u l=150000u
.ends

.subckt sky130_fd_sc_hd__clkinvlp_2 VGND VPWR Y A VNB VPB
X0 Y A a_150_67# VNB sky130_fd_pr__nfet_01v8 ad=0p pd=0u as=0p ps=0u w=550000u l=150000u
X1 VPWR A Y VPB sky130_fd_pr__pfet_01v8_hvt ad=0p pd=0u as=0p ps=0u w=1e+06u l=250000u
X2 a_150_67# A VGND VNB sky130_fd_pr__nfet_01v8 ad=0p pd=0u as=0p ps=0u w=550000u l=150000u
X3 Y A VPWR VPB sky130_fd_pr__pfet_01v8_hvt ad=0p pd=0u as=0p ps=0u w=1e+06u l=250000u
.ends

.subckt sky130_fd_sc_hd__clkinv_4 A Y VPWR VGND VNB VPB
X0 Y A VPWR VPB sky130_fd_pr__pfet_01v8_hvt ad=0p pd=0u as=0p ps=0u w=1e+06u l=150000u
X1 VGND A Y VNB sky130_fd_pr__nfet_01v8 ad=0p pd=0u as=0p ps=0u w=420000u l=150000u
X2 VGND A Y VNB sky130_fd_pr__nfet_01v8 ad=0p pd=0u as=0p ps=0u w=420000u l=150000u
X3 VPWR A Y VPB sky130_fd_pr__pfet_01v8_hvt ad=0p pd=0u as=0p ps=0u w=1e+06u l=150000u
X4 VPWR A Y VPB sky130_fd_pr__pfet_01v8_hvt ad=0p pd=0u as=0p ps=0u w=1e+06u l=150000u
X5 Y A VGND VNB sky130_fd_pr__nfet_01v8 ad=0p pd=0u as=0p ps=0u w=420000u l=150000u
X6 Y A VPWR VPB sky130_fd_pr__pfet_01v8_hvt ad=0p pd=0u as=0p ps=0u w=1e+06u l=150000u
X7 Y A VGND VNB sky130_fd_pr__nfet_01v8 ad=0p pd=0u as=0p ps=0u w=420000u l=150000u
X8 Y A VPWR VPB sky130_fd_pr__pfet_01v8_hvt ad=0p pd=0u as=0p ps=0u w=1e+06u l=150000u
X9 VPWR A Y VPB sky130_fd_pr__pfet_01v8_hvt ad=0p pd=0u as=0p ps=0u w=1e+06u l=150000u
.ends

.subckt sky130_fd_sc_hd__clkbuf_4 X A VGND VPWR VNB VPB
X0 VPWR A a_27_47# VPB sky130_fd_pr__pfet_01v8_hvt ad=0p pd=0u as=0p ps=0u w=1e+06u l=150000u
X1 VGND a_27_47# X VNB sky130_fd_pr__nfet_01v8 ad=0p pd=0u as=0p ps=0u w=420000u l=150000u
X2 VGND a_27_47# X VNB sky130_fd_pr__nfet_01v8 ad=0p pd=0u as=0p ps=0u w=420000u l=150000u
X3 X a_27_47# VPWR VPB sky130_fd_pr__pfet_01v8_hvt ad=0p pd=0u as=0p ps=0u w=1e+06u l=150000u
X4 X a_27_47# VGND VNB sky130_fd_pr__nfet_01v8 ad=0p pd=0u as=0p ps=0u w=420000u l=150000u
X5 VGND A a_27_47# VNB sky130_fd_pr__nfet_01v8 ad=0p pd=0u as=0p ps=0u w=420000u l=150000u
X6 VPWR a_27_47# X VPB sky130_fd_pr__pfet_01v8_hvt ad=0p pd=0u as=0p ps=0u w=1e+06u l=150000u
X7 X a_27_47# VGND VNB sky130_fd_pr__nfet_01v8 ad=0p pd=0u as=0p ps=0u w=420000u l=150000u
X8 X a_27_47# VPWR VPB sky130_fd_pr__pfet_01v8_hvt ad=0p pd=0u as=0p ps=0u w=1e+06u l=150000u
X9 VPWR a_27_47# X VPB sky130_fd_pr__pfet_01v8_hvt ad=0p pd=0u as=0p ps=0u w=1e+06u l=150000u
.ends

.subckt sky130_fd_sc_hd__dfxbp_1 VGND VPWR Q_N D CLK Q VNB VPB
X0 Q a_1059_315# VGND VNB sky130_fd_pr__nfet_01v8 ad=0p pd=0u as=0p ps=0u w=650000u l=150000u
X1 a_891_413# a_193_47# a_634_159# VNB sky130_fd_pr__nfet_01v8 ad=0p pd=0u as=0p ps=0u w=360000u l=150000u
X2 a_561_413# a_27_47# a_466_413# VPB sky130_fd_pr__pfet_01v8_hvt ad=0p pd=0u as=0p ps=0u w=420000u l=150000u
X3 VPWR CLK a_27_47# VPB sky130_fd_pr__pfet_01v8_hvt ad=0p pd=0u as=0p ps=0u w=640000u l=150000u
X4 a_381_47# D VPWR VPB sky130_fd_pr__pfet_01v8_hvt ad=0p pd=0u as=0p ps=0u w=420000u l=150000u
X5 VGND a_634_159# a_592_47# VNB sky130_fd_pr__nfet_01v8 ad=0p pd=0u as=0p ps=0u w=420000u l=150000u
X6 a_466_413# a_193_47# a_381_47# VPB sky130_fd_pr__pfet_01v8_hvt ad=0p pd=0u as=0p ps=0u w=420000u l=150000u
X7 VPWR a_634_159# a_561_413# VPB sky130_fd_pr__pfet_01v8_hvt ad=0p pd=0u as=0p ps=0u w=420000u l=150000u
X8 a_634_159# a_466_413# VGND VNB sky130_fd_pr__nfet_01v8 ad=0p pd=0u as=0p ps=0u w=640000u l=150000u
X9 Q a_1059_315# VPWR VPB sky130_fd_pr__pfet_01v8_hvt ad=0p pd=0u as=0p ps=0u w=1e+06u l=150000u
X10 VGND a_1059_315# a_1490_369# VNB sky130_fd_pr__nfet_01v8 ad=0p pd=0u as=0p ps=0u w=420000u l=150000u
X11 a_634_159# a_466_413# VPWR VPB sky130_fd_pr__pfet_01v8_hvt ad=0p pd=0u as=0p ps=0u w=750000u l=150000u
X12 a_975_413# a_193_47# a_891_413# VPB sky130_fd_pr__pfet_01v8_hvt ad=0p pd=0u as=0p ps=0u w=420000u l=150000u
X13 VGND a_1059_315# a_1017_47# VNB sky130_fd_pr__nfet_01v8 ad=0p pd=0u as=0p ps=0u w=420000u l=150000u
X14 a_193_47# a_27_47# VGND VNB sky130_fd_pr__nfet_01v8 ad=0p pd=0u as=0p ps=0u w=420000u l=150000u
X15 a_891_413# a_27_47# a_634_159# VPB sky130_fd_pr__pfet_01v8_hvt ad=0p pd=0u as=0p ps=0u w=420000u l=150000u
X16 a_592_47# a_193_47# a_466_413# VNB sky130_fd_pr__nfet_01v8 ad=0p pd=0u as=0p ps=0u w=360000u l=150000u
X17 VPWR a_891_413# a_1059_315# VPB sky130_fd_pr__pfet_01v8_hvt ad=0p pd=0u as=0p ps=0u w=1e+06u l=150000u
X18 a_1017_47# a_27_47# a_891_413# VNB sky130_fd_pr__nfet_01v8 ad=0p pd=0u as=0p ps=0u w=360000u l=150000u
X19 VPWR a_1059_315# a_975_413# VPB sky130_fd_pr__pfet_01v8_hvt ad=0p pd=0u as=0p ps=0u w=420000u l=150000u
X20 a_466_413# a_27_47# a_381_47# VNB sky130_fd_pr__nfet_01v8 ad=0p pd=0u as=0p ps=0u w=360000u l=150000u
X21 a_193_47# a_27_47# VPWR VPB sky130_fd_pr__pfet_01v8_hvt ad=0p pd=0u as=0p ps=0u w=640000u l=150000u
X22 VGND a_891_413# a_1059_315# VNB sky130_fd_pr__nfet_01v8 ad=0p pd=0u as=0p ps=0u w=650000u l=150000u
X23 Q_N a_1490_369# VGND VNB sky130_fd_pr__nfet_01v8 ad=0p pd=0u as=0p ps=0u w=650000u l=150000u
X24 a_381_47# D VGND VNB sky130_fd_pr__nfet_01v8 ad=0p pd=0u as=0p ps=0u w=420000u l=150000u
X25 Q_N a_1490_369# VPWR VPB sky130_fd_pr__pfet_01v8_hvt ad=0p pd=0u as=0p ps=0u w=1e+06u l=150000u
X26 VGND CLK a_27_47# VNB sky130_fd_pr__nfet_01v8 ad=0p pd=0u as=0p ps=0u w=420000u l=150000u
X27 VPWR a_1059_315# a_1490_369# VPB sky130_fd_pr__pfet_01v8_hvt ad=0p pd=0u as=0p ps=0u w=640000u l=150000u
.ends

.subckt sky130_fd_sc_hd__decap_8 VPWR VGND VNB VPB
X0 VPWR VGND VPWR VPB sky130_fd_pr__pfet_01v8_hvt ad=0p pd=0u as=0p ps=0u w=870000u l=2.89e+06u
X1 VGND VPWR VGND VNB sky130_fd_pr__nfet_01v8 ad=0p pd=0u as=0p ps=0u w=550000u l=2.89e+06u
.ends

.subckt sky130_fd_sc_hd__nand2_1 Y B A VGND VPWR VNB VPB
X0 VPWR A Y VPB sky130_fd_pr__pfet_01v8_hvt ad=0p pd=0u as=0p ps=0u w=1e+06u l=150000u
X1 Y A a_113_47# VNB sky130_fd_pr__nfet_01v8 ad=0p pd=0u as=0p ps=0u w=650000u l=150000u
X2 a_113_47# B VGND VNB sky130_fd_pr__nfet_01v8 ad=0p pd=0u as=0p ps=0u w=650000u l=150000u
X3 Y B VPWR VPB sky130_fd_pr__pfet_01v8_hvt ad=0p pd=0u as=0p ps=0u w=1e+06u l=150000u
.ends

.subckt sky130_fd_sc_hd__clkinv_1 Y A VGND VPWR VNB VPB
X0 Y A VPWR VPB sky130_fd_pr__pfet_01v8_hvt ad=0p pd=0u as=0p ps=0u w=840000u l=150000u
X1 VGND A Y VNB sky130_fd_pr__nfet_01v8 ad=0p pd=0u as=0p ps=0u w=420000u l=150000u
X2 VPWR A Y VPB sky130_fd_pr__pfet_01v8_hvt ad=0p pd=0u as=0p ps=0u w=840000u l=150000u
.ends

.subckt sky130_fd_sc_hd__mux2_1 VGND VPWR S A1 A0 X VNB VPB
X0 VPWR a_505_21# a_535_374# VPB sky130_fd_pr__pfet_01v8_hvt ad=0p pd=0u as=0p ps=0u w=420000u l=150000u
X1 a_505_21# S VPWR VPB sky130_fd_pr__pfet_01v8_hvt ad=0p pd=0u as=0p ps=0u w=420000u l=150000u
X2 a_218_374# S VPWR VPB sky130_fd_pr__pfet_01v8_hvt ad=0p pd=0u as=0p ps=0u w=420000u l=150000u
X3 VGND a_505_21# a_439_47# VNB sky130_fd_pr__nfet_01v8 ad=0p pd=0u as=0p ps=0u w=420000u l=150000u
X4 a_76_199# A0 a_218_374# VPB sky130_fd_pr__pfet_01v8_hvt ad=0p pd=0u as=0p ps=0u w=420000u l=150000u
X5 a_505_21# S VGND VNB sky130_fd_pr__nfet_01v8 ad=0p pd=0u as=0p ps=0u w=420000u l=150000u
X6 a_439_47# A0 a_76_199# VNB sky130_fd_pr__nfet_01v8 ad=0p pd=0u as=0p ps=0u w=420000u l=150000u
X7 a_535_374# A1 a_76_199# VPB sky130_fd_pr__pfet_01v8_hvt ad=0p pd=0u as=0p ps=0u w=420000u l=150000u
X8 a_76_199# A1 a_218_47# VNB sky130_fd_pr__nfet_01v8 ad=0p pd=0u as=0p ps=0u w=420000u l=150000u
X9 a_218_47# S VGND VNB sky130_fd_pr__nfet_01v8 ad=0p pd=0u as=0p ps=0u w=420000u l=150000u
X10 VPWR a_76_199# X VPB sky130_fd_pr__pfet_01v8_hvt ad=0p pd=0u as=0p ps=0u w=1e+06u l=150000u
X11 VGND a_76_199# X VNB sky130_fd_pr__nfet_01v8 ad=0p pd=0u as=0p ps=0u w=650000u l=150000u
.ends

.subckt clock_generator p2d_b p2d p2_b p2 p1d_b p1d p1_b p1 Ad A_b A Bd B_b B clk
+ VSS VDD
Xsky130_fd_sc_hd__decap_6_13 sky130_fd_sc_hd__fill_4_4/VPB VSUBS VSUBS sky130_fd_sc_hd__fill_4_4/VPB
+ sky130_fd_sc_hd__decap_6
Xsky130_fd_sc_hd__decap_3_25 sky130_fd_sc_hd__fill_4_8/VPB VSUBS VSUBS sky130_fd_sc_hd__fill_4_8/VPB
+ sky130_fd_sc_hd__decap_3
Xsky130_fd_sc_hd__decap_3_14 sky130_fd_sc_hd__fill_2_9/VPB VSUBS VSUBS sky130_fd_sc_hd__fill_2_9/VPB
+ sky130_fd_sc_hd__decap_3
Xsky130_fd_sc_hd__decap_12_10 VSUBS sky130_fd_sc_hd__fill_8_0/VPB VSUBS sky130_fd_sc_hd__fill_8_0/VPB
+ sky130_fd_sc_hd__decap_12
Xsky130_fd_sc_hd__decap_6_14 sky130_fd_sc_hd__fill_2_6/VPB VSUBS VSUBS sky130_fd_sc_hd__fill_2_6/VPB
+ sky130_fd_sc_hd__decap_6
Xsky130_fd_sc_hd__decap_3_26 sky130_fd_sc_hd__mux2_1_0/VPB VSUBS VSUBS sky130_fd_sc_hd__mux2_1_0/VPB
+ sky130_fd_sc_hd__decap_3
Xsky130_fd_sc_hd__decap_3_15 sky130_fd_sc_hd__fill_4_5/VPB VSUBS VSUBS sky130_fd_sc_hd__fill_4_5/VPB
+ sky130_fd_sc_hd__decap_3
Xsky130_fd_sc_hd__decap_12_11 VSUBS sky130_fd_sc_hd__fill_2_6/VPB VSUBS sky130_fd_sc_hd__fill_2_6/VPB
+ sky130_fd_sc_hd__decap_12
Xsky130_fd_sc_hd__decap_6_15 sky130_fd_sc_hd__fill_4_4/VPB VSUBS VSUBS sky130_fd_sc_hd__fill_4_4/VPB
+ sky130_fd_sc_hd__decap_6
Xsky130_fd_sc_hd__decap_3_16 sky130_fd_sc_hd__fill_4_7/VPB VSUBS VSUBS sky130_fd_sc_hd__fill_4_7/VPB
+ sky130_fd_sc_hd__decap_3
Xsky130_fd_sc_hd__clkdlybuf4s50_1_0 sky130_fd_sc_hd__clkdlybuf4s50_1_8/X sky130_fd_sc_hd__clkdlybuf4s50_1_2/A
+ VSUBS sky130_fd_sc_hd__fill_2_6/VPB VSUBS sky130_fd_sc_hd__fill_2_6/VPB sky130_fd_sc_hd__clkdlybuf4s50_1
Xsky130_fd_sc_hd__decap_3_27 sky130_fd_sc_hd__fill_2_20/VPB VSUBS VSUBS sky130_fd_sc_hd__fill_2_20/VPB
+ sky130_fd_sc_hd__decap_3
Xsky130_fd_sc_hd__decap_12_12 VSUBS sky130_fd_sc_hd__fill_2_9/VPB VSUBS sky130_fd_sc_hd__fill_2_9/VPB
+ sky130_fd_sc_hd__decap_12
Xsky130_fd_sc_hd__decap_3_28 sky130_fd_sc_hd__fill_2_20/VPB VSUBS VSUBS sky130_fd_sc_hd__fill_2_20/VPB
+ sky130_fd_sc_hd__decap_3
Xsky130_fd_sc_hd__decap_3_17 sky130_fd_sc_hd__fill_4_4/VPB VSUBS VSUBS sky130_fd_sc_hd__fill_4_4/VPB
+ sky130_fd_sc_hd__decap_3
Xsky130_fd_sc_hd__clkdlybuf4s50_1_1 sky130_fd_sc_hd__clkdlybuf4s50_1_9/X sky130_fd_sc_hd__clkdlybuf4s50_1_3/A
+ VSUBS sky130_fd_sc_hd__fill_4_4/VPB VSUBS sky130_fd_sc_hd__fill_4_4/VPB sky130_fd_sc_hd__clkdlybuf4s50_1
Xsky130_fd_sc_hd__decap_4_60 VSUBS sky130_fd_sc_hd__fill_2_0/VPB VSUBS sky130_fd_sc_hd__fill_2_0/VPB
+ sky130_fd_sc_hd__decap_4
Xsky130_fd_sc_hd__decap_12_13 VSUBS sky130_fd_sc_hd__fill_2_9/VPB VSUBS sky130_fd_sc_hd__fill_2_9/VPB
+ sky130_fd_sc_hd__decap_12
Xsky130_fd_sc_hd__clkinv_16_0 p1_b sky130_fd_sc_hd__clkinv_4_0/Y VSUBS sky130_fd_sc_hd__fill_2_0/VPB
+ VSUBS sky130_fd_sc_hd__fill_2_0/VPB sky130_fd_sc_hd__clkinv_16
Xsky130_fd_sc_hd__decap_3_29 sky130_fd_sc_hd__fill_2_6/VPB VSUBS VSUBS sky130_fd_sc_hd__fill_2_6/VPB
+ sky130_fd_sc_hd__decap_3
Xsky130_fd_sc_hd__clkdlybuf4s50_1_2 sky130_fd_sc_hd__clkdlybuf4s50_1_2/A sky130_fd_sc_hd__clkdlybuf4s50_1_4/A
+ VSUBS sky130_fd_sc_hd__fill_2_9/VPB VSUBS sky130_fd_sc_hd__fill_2_9/VPB sky130_fd_sc_hd__clkdlybuf4s50_1
Xsky130_fd_sc_hd__decap_3_18 sky130_fd_sc_hd__fill_8_0/VPB VSUBS VSUBS sky130_fd_sc_hd__fill_8_0/VPB
+ sky130_fd_sc_hd__decap_3
Xsky130_fd_sc_hd__decap_4_61 VSUBS sky130_fd_sc_hd__fill_2_0/VPB VSUBS sky130_fd_sc_hd__fill_2_0/VPB
+ sky130_fd_sc_hd__decap_4
Xsky130_fd_sc_hd__decap_4_50 VSUBS sky130_fd_sc_hd__fill_2_20/VPB VSUBS sky130_fd_sc_hd__fill_2_20/VPB
+ sky130_fd_sc_hd__decap_4
Xsky130_fd_sc_hd__clkinv_16_1 p1 sky130_fd_sc_hd__clkinv_4_2/Y VSUBS sky130_fd_sc_hd__fill_2_0/VPB
+ VSUBS sky130_fd_sc_hd__fill_2_0/VPB sky130_fd_sc_hd__clkinv_16
Xsky130_fd_sc_hd__nand2_4_0 sky130_fd_sc_hd__nand2_4_0/Y sky130_fd_sc_hd__nand2_4_0/A
+ sky130_fd_sc_hd__nand2_4_0/B VSUBS sky130_fd_sc_hd__fill_4_7/VPB VSUBS sky130_fd_sc_hd__fill_4_7/VPB
+ sky130_fd_sc_hd__nand2_4
Xsky130_fd_sc_hd__decap_3_19 sky130_fd_sc_hd__fill_4_5/VPB VSUBS VSUBS sky130_fd_sc_hd__fill_4_5/VPB
+ sky130_fd_sc_hd__decap_3
Xsky130_fd_sc_hd__clkdlybuf4s50_1_3 sky130_fd_sc_hd__clkdlybuf4s50_1_3/A sky130_fd_sc_hd__clkdlybuf4s50_1_5/A
+ VSUBS sky130_fd_sc_hd__fill_4_5/VPB VSUBS sky130_fd_sc_hd__fill_4_5/VPB sky130_fd_sc_hd__clkdlybuf4s50_1
Xsky130_fd_sc_hd__decap_4_40 VSUBS sky130_fd_sc_hd__fill_2_0/VPB VSUBS sky130_fd_sc_hd__fill_2_0/VPB
+ sky130_fd_sc_hd__decap_4
Xsky130_fd_sc_hd__decap_4_62 VSUBS sky130_fd_sc_hd__fill_4_7/VPB VSUBS sky130_fd_sc_hd__fill_4_7/VPB
+ sky130_fd_sc_hd__decap_4
Xsky130_fd_sc_hd__decap_4_51 VSUBS sky130_fd_sc_hd__fill_2_9/VPB VSUBS sky130_fd_sc_hd__fill_2_9/VPB
+ sky130_fd_sc_hd__decap_4
Xsky130_fd_sc_hd__clkinvlp_2_0 VSUBS sky130_fd_sc_hd__fill_2_9/VPB Bd sky130_fd_sc_hd__nand2_1_1/Y
+ VSUBS sky130_fd_sc_hd__fill_2_9/VPB sky130_fd_sc_hd__clkinvlp_2
Xsky130_fd_sc_hd__nand2_4_1 sky130_fd_sc_hd__nand2_4_1/Y sky130_fd_sc_hd__nand2_4_1/A
+ sky130_fd_sc_hd__nand2_4_1/B VSUBS sky130_fd_sc_hd__fill_2_6/VPB VSUBS sky130_fd_sc_hd__fill_2_6/VPB
+ sky130_fd_sc_hd__nand2_4
Xsky130_fd_sc_hd__clkinv_16_2 p1d_b sky130_fd_sc_hd__nand2_4_0/B VSUBS sky130_fd_sc_hd__fill_4_5/VPB
+ VSUBS sky130_fd_sc_hd__fill_4_5/VPB sky130_fd_sc_hd__clkinv_16
Xsky130_fd_sc_hd__clkinv_4_0 sky130_fd_sc_hd__clkinv_4_2/Y sky130_fd_sc_hd__clkinv_4_0/Y
+ sky130_fd_sc_hd__fill_4_8/VPB VSUBS VSUBS sky130_fd_sc_hd__fill_4_8/VPB sky130_fd_sc_hd__clkinv_4
Xsky130_fd_sc_hd__clkbuf_4_0 sky130_fd_sc_hd__nand2_4_0/B sky130_fd_sc_hd__clkbuf_4_0/A
+ VSUBS sky130_fd_sc_hd__fill_4_7/VPB VSUBS sky130_fd_sc_hd__fill_4_7/VPB sky130_fd_sc_hd__clkbuf_4
Xsky130_fd_sc_hd__clkdlybuf4s50_1_4 sky130_fd_sc_hd__clkdlybuf4s50_1_4/A sky130_fd_sc_hd__clkdlybuf4s50_1_6/A
+ VSUBS sky130_fd_sc_hd__fill_2_6/VPB VSUBS sky130_fd_sc_hd__fill_2_6/VPB sky130_fd_sc_hd__clkdlybuf4s50_1
Xsky130_fd_sc_hd__decap_4_30 VSUBS sky130_fd_sc_hd__fill_2_0/VPB VSUBS sky130_fd_sc_hd__fill_2_0/VPB
+ sky130_fd_sc_hd__decap_4
Xsky130_fd_sc_hd__decap_4_41 VSUBS sky130_fd_sc_hd__fill_2_0/VPB VSUBS sky130_fd_sc_hd__fill_2_0/VPB
+ sky130_fd_sc_hd__decap_4
Xsky130_fd_sc_hd__decap_4_52 VSUBS sky130_fd_sc_hd__fill_2_0/VPB VSUBS sky130_fd_sc_hd__fill_2_0/VPB
+ sky130_fd_sc_hd__decap_4
Xsky130_fd_sc_hd__decap_4_63 VSUBS sky130_fd_sc_hd__mux2_1_0/VPB VSUBS sky130_fd_sc_hd__mux2_1_0/VPB
+ sky130_fd_sc_hd__decap_4
Xsky130_fd_sc_hd__clkinvlp_2_1 VSUBS sky130_fd_sc_hd__fill_4_8/VPB Ad sky130_fd_sc_hd__nand2_1_2/Y
+ VSUBS sky130_fd_sc_hd__fill_4_8/VPB sky130_fd_sc_hd__clkinvlp_2
Xsky130_fd_sc_hd__clkinv_16_3 p1d sky130_fd_sc_hd__nand2_4_0/Y VSUBS sky130_fd_sc_hd__fill_4_8/VPB
+ VSUBS sky130_fd_sc_hd__fill_4_8/VPB sky130_fd_sc_hd__clkinv_16
Xsky130_fd_sc_hd__clkbuf_4_1 sky130_fd_sc_hd__nand2_4_1/B sky130_fd_sc_hd__clkbuf_4_1/A
+ VSUBS sky130_fd_sc_hd__fill_2_6/VPB VSUBS sky130_fd_sc_hd__fill_2_6/VPB sky130_fd_sc_hd__clkbuf_4
Xsky130_fd_sc_hd__clkinv_4_1 sky130_fd_sc_hd__clkinv_4_3/Y sky130_fd_sc_hd__clkinv_4_1/Y
+ sky130_fd_sc_hd__fill_2_20/VPB VSUBS VSUBS sky130_fd_sc_hd__fill_2_20/VPB sky130_fd_sc_hd__clkinv_4
Xsky130_fd_sc_hd__clkdlybuf4s50_1_5 sky130_fd_sc_hd__clkdlybuf4s50_1_5/A sky130_fd_sc_hd__clkdlybuf4s50_1_7/A
+ VSUBS sky130_fd_sc_hd__fill_4_5/VPB VSUBS sky130_fd_sc_hd__fill_4_5/VPB sky130_fd_sc_hd__clkdlybuf4s50_1
Xsky130_fd_sc_hd__decap_4_53 VSUBS sky130_fd_sc_hd__fill_2_0/VPB VSUBS sky130_fd_sc_hd__fill_2_0/VPB
+ sky130_fd_sc_hd__decap_4
Xsky130_fd_sc_hd__decap_4_20 VSUBS sky130_fd_sc_hd__fill_2_0/VPB VSUBS sky130_fd_sc_hd__fill_2_0/VPB
+ sky130_fd_sc_hd__decap_4
Xsky130_fd_sc_hd__decap_4_31 VSUBS sky130_fd_sc_hd__fill_4_8/VPB VSUBS sky130_fd_sc_hd__fill_4_8/VPB
+ sky130_fd_sc_hd__decap_4
Xsky130_fd_sc_hd__decap_4_42 VSUBS sky130_fd_sc_hd__fill_4_8/VPB VSUBS sky130_fd_sc_hd__fill_4_8/VPB
+ sky130_fd_sc_hd__decap_4
Xsky130_fd_sc_hd__decap_4_64 VSUBS sky130_fd_sc_hd__fill_2_20/VPB VSUBS sky130_fd_sc_hd__fill_2_20/VPB
+ sky130_fd_sc_hd__decap_4
Xsky130_fd_sc_hd__clkinvlp_2_2 VSUBS sky130_fd_sc_hd__fill_8_0/VPB sky130_fd_sc_hd__nand2_1_3/A
+ sky130_fd_sc_hd__nand2_1_4/A VSUBS sky130_fd_sc_hd__fill_8_0/VPB sky130_fd_sc_hd__clkinvlp_2
Xsky130_fd_sc_hd__clkinv_16_4 p2d sky130_fd_sc_hd__nand2_4_1/Y VSUBS sky130_fd_sc_hd__fill_2_9/VPB
+ VSUBS sky130_fd_sc_hd__fill_2_9/VPB sky130_fd_sc_hd__clkinv_16
Xsky130_fd_sc_hd__clkinv_4_2 sky130_fd_sc_hd__nand2_4_0/A sky130_fd_sc_hd__clkinv_4_2/Y
+ sky130_fd_sc_hd__fill_4_8/VPB VSUBS VSUBS sky130_fd_sc_hd__fill_4_8/VPB sky130_fd_sc_hd__clkinv_4
Xsky130_fd_sc_hd__clkdlybuf4s50_1_6 sky130_fd_sc_hd__clkdlybuf4s50_1_6/A sky130_fd_sc_hd__clkdlybuf4s50_1_6/X
+ VSUBS sky130_fd_sc_hd__fill_2_6/VPB VSUBS sky130_fd_sc_hd__fill_2_6/VPB sky130_fd_sc_hd__clkdlybuf4s50_1
Xsky130_fd_sc_hd__decap_4_65 VSUBS sky130_fd_sc_hd__fill_2_0/VPB VSUBS sky130_fd_sc_hd__fill_2_0/VPB
+ sky130_fd_sc_hd__decap_4
Xsky130_fd_sc_hd__decap_4_21 VSUBS sky130_fd_sc_hd__fill_4_8/VPB VSUBS sky130_fd_sc_hd__fill_4_8/VPB
+ sky130_fd_sc_hd__decap_4
Xsky130_fd_sc_hd__decap_4_54 VSUBS sky130_fd_sc_hd__fill_4_8/VPB VSUBS sky130_fd_sc_hd__fill_4_8/VPB
+ sky130_fd_sc_hd__decap_4
Xsky130_fd_sc_hd__decap_4_32 VSUBS sky130_fd_sc_hd__fill_4_7/VPB VSUBS sky130_fd_sc_hd__fill_4_7/VPB
+ sky130_fd_sc_hd__decap_4
Xsky130_fd_sc_hd__decap_4_43 VSUBS sky130_fd_sc_hd__fill_4_7/VPB VSUBS sky130_fd_sc_hd__fill_4_7/VPB
+ sky130_fd_sc_hd__decap_4
Xsky130_fd_sc_hd__decap_4_10 VSUBS sky130_fd_sc_hd__fill_2_9/VPB VSUBS sky130_fd_sc_hd__fill_2_9/VPB
+ sky130_fd_sc_hd__decap_4
Xsky130_fd_sc_hd__clkinvlp_2_3 VSUBS sky130_fd_sc_hd__fill_2_20/VPB B_b B VSUBS sky130_fd_sc_hd__fill_2_20/VPB
+ sky130_fd_sc_hd__clkinvlp_2
Xsky130_fd_sc_hd__decap_3_0 sky130_fd_sc_hd__fill_8_0/VPB VSUBS VSUBS sky130_fd_sc_hd__fill_8_0/VPB
+ sky130_fd_sc_hd__decap_3
Xsky130_fd_sc_hd__clkinv_16_5 p2d_b sky130_fd_sc_hd__nand2_4_1/B VSUBS sky130_fd_sc_hd__fill_2_6/VPB
+ VSUBS sky130_fd_sc_hd__fill_2_6/VPB sky130_fd_sc_hd__clkinv_16
Xsky130_fd_sc_hd__clkdlybuf4s50_1_7 sky130_fd_sc_hd__clkdlybuf4s50_1_7/A sky130_fd_sc_hd__clkdlybuf4s50_1_7/X
+ VSUBS sky130_fd_sc_hd__fill_4_5/VPB VSUBS sky130_fd_sc_hd__fill_4_5/VPB sky130_fd_sc_hd__clkdlybuf4s50_1
Xsky130_fd_sc_hd__clkinv_4_3 sky130_fd_sc_hd__nand2_4_1/A sky130_fd_sc_hd__clkinv_4_3/Y
+ sky130_fd_sc_hd__fill_2_20/VPB VSUBS VSUBS sky130_fd_sc_hd__fill_2_20/VPB sky130_fd_sc_hd__clkinv_4
Xsky130_fd_sc_hd__decap_4_11 VSUBS sky130_fd_sc_hd__fill_2_0/VPB VSUBS sky130_fd_sc_hd__fill_2_0/VPB
+ sky130_fd_sc_hd__decap_4
Xsky130_fd_sc_hd__decap_4_66 VSUBS sky130_fd_sc_hd__fill_2_0/VPB VSUBS sky130_fd_sc_hd__fill_2_0/VPB
+ sky130_fd_sc_hd__decap_4
Xsky130_fd_sc_hd__decap_4_44 VSUBS sky130_fd_sc_hd__fill_4_5/VPB VSUBS sky130_fd_sc_hd__fill_4_5/VPB
+ sky130_fd_sc_hd__decap_4
Xsky130_fd_sc_hd__decap_4_33 VSUBS sky130_fd_sc_hd__fill_4_4/VPB VSUBS sky130_fd_sc_hd__fill_4_4/VPB
+ sky130_fd_sc_hd__decap_4
Xsky130_fd_sc_hd__decap_4_22 VSUBS sky130_fd_sc_hd__fill_4_4/VPB VSUBS sky130_fd_sc_hd__fill_4_4/VPB
+ sky130_fd_sc_hd__decap_4
Xsky130_fd_sc_hd__decap_4_55 VSUBS sky130_fd_sc_hd__fill_4_5/VPB VSUBS sky130_fd_sc_hd__fill_4_5/VPB
+ sky130_fd_sc_hd__decap_4
Xsky130_fd_sc_hd__clkinvlp_2_4 VSUBS sky130_fd_sc_hd__fill_4_4/VPB A_b A VSUBS sky130_fd_sc_hd__fill_4_4/VPB
+ sky130_fd_sc_hd__clkinvlp_2
Xsky130_fd_sc_hd__decap_3_1 sky130_fd_sc_hd__fill_2_0/VPB VSUBS VSUBS sky130_fd_sc_hd__fill_2_0/VPB
+ sky130_fd_sc_hd__decap_3
Xsky130_fd_sc_hd__clkinv_16_6 p2 sky130_fd_sc_hd__clkinv_4_3/Y VSUBS sky130_fd_sc_hd__mux2_1_0/VPB
+ VSUBS sky130_fd_sc_hd__mux2_1_0/VPB sky130_fd_sc_hd__clkinv_16
Xsky130_fd_sc_hd__clkdlybuf4s50_1_8 sky130_fd_sc_hd__nand2_4_1/B sky130_fd_sc_hd__clkdlybuf4s50_1_8/X
+ VSUBS sky130_fd_sc_hd__fill_2_6/VPB VSUBS sky130_fd_sc_hd__fill_2_6/VPB sky130_fd_sc_hd__clkdlybuf4s50_1
Xsky130_fd_sc_hd__decap_4_12 VSUBS sky130_fd_sc_hd__fill_2_0/VPB VSUBS sky130_fd_sc_hd__fill_2_0/VPB
+ sky130_fd_sc_hd__decap_4
Xsky130_fd_sc_hd__decap_4_67 VSUBS sky130_fd_sc_hd__fill_2_0/VPB VSUBS sky130_fd_sc_hd__fill_2_0/VPB
+ sky130_fd_sc_hd__decap_4
Xsky130_fd_sc_hd__decap_4_34 VSUBS sky130_fd_sc_hd__fill_2_9/VPB VSUBS sky130_fd_sc_hd__fill_2_9/VPB
+ sky130_fd_sc_hd__decap_4
Xsky130_fd_sc_hd__decap_4_23 VSUBS sky130_fd_sc_hd__mux2_1_0/VPB VSUBS sky130_fd_sc_hd__mux2_1_0/VPB
+ sky130_fd_sc_hd__decap_4
Xsky130_fd_sc_hd__decap_4_56 VSUBS sky130_fd_sc_hd__fill_8_0/VPB VSUBS sky130_fd_sc_hd__fill_8_0/VPB
+ sky130_fd_sc_hd__decap_4
Xsky130_fd_sc_hd__decap_4_45 VSUBS sky130_fd_sc_hd__fill_4_4/VPB VSUBS sky130_fd_sc_hd__fill_4_4/VPB
+ sky130_fd_sc_hd__decap_4
Xsky130_fd_sc_hd__decap_3_2 sky130_fd_sc_hd__mux2_1_0/VPB VSUBS VSUBS sky130_fd_sc_hd__mux2_1_0/VPB
+ sky130_fd_sc_hd__decap_3
Xsky130_fd_sc_hd__clkinv_16_7 p2_b sky130_fd_sc_hd__clkinv_4_1/Y VSUBS sky130_fd_sc_hd__fill_2_20/VPB
+ VSUBS sky130_fd_sc_hd__fill_2_20/VPB sky130_fd_sc_hd__clkinv_16
Xsky130_fd_sc_hd__clkdlybuf4s50_1_9 sky130_fd_sc_hd__nand2_4_0/B sky130_fd_sc_hd__clkdlybuf4s50_1_9/X
+ VSUBS sky130_fd_sc_hd__fill_4_5/VPB VSUBS sky130_fd_sc_hd__fill_4_5/VPB sky130_fd_sc_hd__clkdlybuf4s50_1
Xsky130_fd_sc_hd__decap_4_35 VSUBS sky130_fd_sc_hd__fill_2_0/VPB VSUBS sky130_fd_sc_hd__fill_2_0/VPB
+ sky130_fd_sc_hd__decap_4
Xsky130_fd_sc_hd__decap_4_57 VSUBS sky130_fd_sc_hd__fill_2_0/VPB VSUBS sky130_fd_sc_hd__fill_2_0/VPB
+ sky130_fd_sc_hd__decap_4
Xsky130_fd_sc_hd__decap_4_13 VSUBS sky130_fd_sc_hd__fill_4_8/VPB VSUBS sky130_fd_sc_hd__fill_4_8/VPB
+ sky130_fd_sc_hd__decap_4
Xsky130_fd_sc_hd__decap_4_24 VSUBS sky130_fd_sc_hd__fill_2_20/VPB VSUBS sky130_fd_sc_hd__fill_2_20/VPB
+ sky130_fd_sc_hd__decap_4
Xsky130_fd_sc_hd__decap_4_46 VSUBS sky130_fd_sc_hd__fill_8_0/VPB VSUBS sky130_fd_sc_hd__fill_8_0/VPB
+ sky130_fd_sc_hd__decap_4
Xsky130_fd_sc_hd__decap_3_3 sky130_fd_sc_hd__fill_2_9/VPB VSUBS VSUBS sky130_fd_sc_hd__fill_2_9/VPB
+ sky130_fd_sc_hd__decap_3
Xsky130_fd_sc_hd__decap_4_25 VSUBS sky130_fd_sc_hd__fill_2_0/VPB VSUBS sky130_fd_sc_hd__fill_2_0/VPB
+ sky130_fd_sc_hd__decap_4
Xsky130_fd_sc_hd__decap_4_36 VSUBS sky130_fd_sc_hd__fill_2_0/VPB VSUBS sky130_fd_sc_hd__fill_2_0/VPB
+ sky130_fd_sc_hd__decap_4
Xsky130_fd_sc_hd__decap_4_14 VSUBS sky130_fd_sc_hd__fill_4_7/VPB VSUBS sky130_fd_sc_hd__fill_4_7/VPB
+ sky130_fd_sc_hd__decap_4
Xsky130_fd_sc_hd__decap_4_47 VSUBS sky130_fd_sc_hd__fill_2_20/VPB VSUBS sky130_fd_sc_hd__fill_2_20/VPB
+ sky130_fd_sc_hd__decap_4
Xsky130_fd_sc_hd__decap_4_58 VSUBS sky130_fd_sc_hd__fill_4_4/VPB VSUBS sky130_fd_sc_hd__fill_4_4/VPB
+ sky130_fd_sc_hd__decap_4
Xsky130_fd_sc_hd__decap_3_4 sky130_fd_sc_hd__fill_8_0/VPB VSUBS VSUBS sky130_fd_sc_hd__fill_8_0/VPB
+ sky130_fd_sc_hd__decap_3
Xsky130_fd_sc_hd__clkdlybuf4s50_1_90 sky130_fd_sc_hd__clkdlybuf4s50_1_90/A sky130_fd_sc_hd__clkdlybuf4s50_1_94/A
+ VSUBS sky130_fd_sc_hd__fill_4_4/VPB VSUBS sky130_fd_sc_hd__fill_4_4/VPB sky130_fd_sc_hd__clkdlybuf4s50_1
Xsky130_fd_sc_hd__decap_4_37 VSUBS sky130_fd_sc_hd__fill_2_0/VPB VSUBS sky130_fd_sc_hd__fill_2_0/VPB
+ sky130_fd_sc_hd__decap_4
Xsky130_fd_sc_hd__decap_4_15 VSUBS sky130_fd_sc_hd__fill_4_5/VPB VSUBS sky130_fd_sc_hd__fill_4_5/VPB
+ sky130_fd_sc_hd__decap_4
Xsky130_fd_sc_hd__decap_4_26 VSUBS sky130_fd_sc_hd__fill_4_7/VPB VSUBS sky130_fd_sc_hd__fill_4_7/VPB
+ sky130_fd_sc_hd__decap_4
Xsky130_fd_sc_hd__decap_4_48 VSUBS sky130_fd_sc_hd__fill_2_6/VPB VSUBS sky130_fd_sc_hd__fill_2_6/VPB
+ sky130_fd_sc_hd__decap_4
Xsky130_fd_sc_hd__decap_4_59 VSUBS sky130_fd_sc_hd__fill_8_0/VPB VSUBS sky130_fd_sc_hd__fill_8_0/VPB
+ sky130_fd_sc_hd__decap_4
Xsky130_fd_sc_hd__decap_3_5 sky130_fd_sc_hd__fill_8_0/VPB VSUBS VSUBS sky130_fd_sc_hd__fill_8_0/VPB
+ sky130_fd_sc_hd__decap_3
Xsky130_fd_sc_hd__clkdlybuf4s50_1_91 sky130_fd_sc_hd__clkdlybuf4s50_1_91/A sky130_fd_sc_hd__clkdlybuf4s50_1_95/A