* NGSPICE file created from clock_generator.ext - technology: sky130A

.subckt sky130_fd_sc_hd__decap_6 VPWR VGND VNB VPB
X0 VPWR VGND VPWR VPB sky130_fd_pr__pfet_01v8_hvt ad=0p pd=0u as=0p ps=0u w=870000u l=1.97e+06u
X1 VGND VPWR VGND VNB sky130_fd_pr__nfet_01v8 ad=0p pd=0u as=0p ps=0u w=550000u l=1.97e+06u
.ends

.subckt sky130_fd_sc_hd__decap_3 VPWR VGND VNB VPB
X0 VPWR VGND VPWR VPB sky130_fd_pr__pfet_01v8_hvt ad=0p pd=0u as=0p ps=0u w=870000u l=590000u
X1 VGND VPWR VGND VNB sky130_fd_pr__nfet_01v8 ad=0p pd=0u as=0p ps=0u w=550000u l=590000u
.ends

.subckt sky130_fd_sc_hd__decap_12 VGND VPWR VNB VPB
X0 VPWR VGND VPWR VPB sky130_fd_pr__pfet_01v8_hvt ad=0p pd=0u as=0p ps=0u w=870000u l=4.73e+06u
X1 VGND VPWR VGND VNB sky130_fd_pr__nfet_01v8 ad=0p pd=0u as=0p ps=0u w=550000u l=4.73e+06u
.ends

.subckt sky130_fd_sc_hd__clkdlybuf4s50_1 A X VGND VPWR VNB VPB
X0 a_283_47# a_27_47# VPWR VPB sky130_fd_pr__pfet_01v8_hvt ad=0p pd=0u as=0p ps=0u w=820000u l=500000u
X1 VPWR A a_27_47# VPB sky130_fd_pr__pfet_01v8_hvt ad=0p pd=0u as=0p ps=0u w=1e+06u l=150000u
X2 VPWR a_283_47# a_390_47# VPB sky130_fd_pr__pfet_01v8_hvt ad=0p pd=0u as=0p ps=0u w=820000u l=500000u
X3 VGND a_283_47# a_390_47# VNB sky130_fd_pr__nfet_01v8 ad=0p pd=0u as=0p ps=0u w=650000u l=500000u
X4 X a_390_47# VPWR VPB sky130_fd_pr__pfet_01v8_hvt ad=0p pd=0u as=0p ps=0u w=1e+06u l=150000u
X5 VGND A a_27_47# VNB sky130_fd_pr__nfet_01v8 ad=0p pd=0u as=0p ps=0u w=420000u l=150000u
X6 a_283_47# a_27_47# VGND VNB sky130_fd_pr__nfet_01v8 ad=0p pd=0u as=0p ps=0u w=650000u l=500000u
X7 X a_390_47# VGND VNB sky130_fd_pr__nfet_01v8 ad=0p pd=0u as=0p ps=0u w=420000u l=150000u
.ends

.subckt sky130_fd_sc_hd__nand2_4 Y A B VGND VPWR VNB VPB
X0 a_27_47# A Y VNB sky130_fd_pr__nfet_01v8 ad=0p pd=0u as=0p ps=0u w=650000u l=150000u
X1 a_27_47# A Y VNB sky130_fd_pr__nfet_01v8 ad=0p pd=0u as=0p ps=0u w=650000u l=150000u
X2 Y A VPWR VPB sky130_fd_pr__pfet_01v8_hvt ad=0p pd=0u as=0p ps=0u w=1e+06u l=150000u
X3 VPWR B Y VPB sky130_fd_pr__pfet_01v8_hvt ad=0p pd=0u as=0p ps=0u w=1e+06u l=150000u
X4 Y B VPWR VPB sky130_fd_pr__pfet_01v8_hvt ad=0p pd=0u as=0p ps=0u w=1e+06u l=150000u
X5 VPWR B Y VPB sky130_fd_pr__pfet_01v8_hvt ad=0p pd=0u as=0p ps=0u w=1e+06u l=150000u
X6 a_27_47# B VGND VNB sky130_fd_pr__nfet_01v8 ad=0p pd=0u as=0p ps=0u w=650000u l=150000u
X7 a_27_47# B VGND VNB sky130_fd_pr__nfet_01v8 ad=0p pd=0u as=0p ps=0u w=650000u l=150000u
X8 VPWR A Y VPB sky130_fd_pr__pfet_01v8_hvt ad=0p pd=0u as=0p ps=0u w=1e+06u l=150000u
X9 VGND B a_27_47# VNB sky130_fd_pr__nfet_01v8 ad=0p pd=0u as=0p ps=0u w=650000u l=150000u
X10 Y A a_27_47# VNB sky130_fd_pr__nfet_01v8 ad=0p pd=0u as=0p ps=0u w=650000u l=150000u
X11 Y A VPWR VPB sky130_fd_pr__pfet_01v8_hvt ad=0p pd=0u as=0p ps=0u w=1e+06u l=150000u
X12 Y A a_27_47# VNB sky130_fd_pr__nfet_01v8 ad=0p pd=0u as=0p ps=0u w=650000u l=150000u
X13 VPWR A Y VPB sky130_fd_pr__pfet_01v8_hvt ad=0p pd=0u as=0p ps=0u w=1e+06u l=150000u
X14 Y B VPWR VPB sky130_fd_pr__pfet_01v8_hvt ad=0p pd=0u as=0p ps=0u w=1e+06u l=150000u
X15 VGND B a_27_47# VNB sky130_fd_pr__nfet_01v8 ad=0p pd=0u as=0p ps=0u w=650000u l=150000u
.ends

.subckt sky130_fd_sc_hd__decap_4 VGND VPWR VNB VPB
X0 VPWR VGND VPWR VPB sky130_fd_pr__pfet_01v8_hvt ad=0p pd=0u as=0p ps=0u w=870000u l=1.05e+06u
X1 VGND VPWR VGND VNB sky130_fd_pr__nfet_01v8 ad=0p pd=0u as=0p ps=0u w=550000u l=1.05e+06u
.ends

.subckt sky130_fd_sc_hd__clkinvlp_2 VGND VPWR Y A VNB VPB
X0 Y A a_150_67# VNB sky130_fd_pr__nfet_01v8 ad=0p pd=0u as=0p ps=0u w=550000u l=150000u
X1 VPWR A Y VPB sky130_fd_pr__pfet_01v8_hvt ad=0p pd=0u as=0p ps=0u w=1e+06u l=250000u
X2 a_150_67# A VGND VNB sky130_fd_pr__nfet_01v8 ad=0p pd=0u as=0p ps=0u w=550000u l=150000u
X3 Y A VPWR VPB sky130_fd_pr__pfet_01v8_hvt ad=0p pd=0u as=0p ps=0u w=1e+06u l=250000u
.ends

.subckt sky130_fd_sc_hd__clkinv_4 A Y VPWR VGND VNB VPB
X0 Y A VPWR VPB sky130_fd_pr__pfet_01v8_hvt ad=0p pd=0u as=0p ps=0u w=1e+06u l=150000u
X1 VGND A Y VNB sky130_fd_pr__nfet_01v8 ad=0p pd=0u as=0p ps=0u w=420000u l=150000u
X2 VGND A Y VNB sky130_fd_pr__nfet_01v8 ad=0p pd=0u as=0p ps=0u w=420000u l=150000u
X3 VPWR A Y VPB sky130_fd_pr__pfet_01v8_hvt ad=0p pd=0u as=0p ps=0u w=1e+06u l=150000u
X4 VPWR A Y VPB sky130_fd_pr__pfet_01v8_hvt ad=0p pd=0u as=0p ps=0u w=1e+06u l=150000u
X5 Y A VGND VNB sky130_fd_pr__nfet_01v8 ad=0p pd=0u as=0p ps=0u w=420000u l=150000u
X6 Y A VPWR VPB sky130_fd_pr__pfet_01v8_hvt ad=0p pd=0u as=0p ps=0u w=1e+06u l=150000u
X7 Y A VGND VNB sky130_fd_pr__nfet_01v8 ad=0p pd=0u as=0p ps=0u w=420000u l=150000u
X8 Y A VPWR VPB sky130_fd_pr__pfet_01v8_hvt ad=0p pd=0u as=0p ps=0u w=1e+06u l=150000u
X9 VPWR A Y VPB sky130_fd_pr__pfet_01v8_hvt ad=0p pd=0u as=0p ps=0u w=1e+06u l=150000u
.ends

.subckt sky130_fd_sc_hd__dfxbp_1 VGND VPWR Q_N D CLK Q VNB VPB
X0 Q a_1059_315# VGND VNB sky130_fd_pr__nfet_01v8 ad=0p pd=0u as=0p ps=0u w=650000u l=150000u
X1 a_891_413# a_193_47# a_634_159# VNB sky130_fd_pr__nfet_01v8 ad=0p pd=0u as=0p ps=0u w=360000u l=150000u
X2 a_561_413# a_27_47# a_466_413# VPB sky130_fd_pr__pfet_01v8_hvt ad=0p pd=0u as=0p ps=0u w=420000u l=150000u
X3 VPWR CLK a_27_47# VPB sky130_fd_pr__pfet_01v8_hvt ad=0p pd=0u as=0p ps=0u w=640000u l=150000u
X4 a_381_47# D VPWR VPB sky130_fd_pr__pfet_01v8_hvt ad=0p pd=0u as=0p ps=0u w=420000u l=150000u
X5 VGND a_634_159# a_592_47# VNB sky130_fd_pr__nfet_01v8 ad=0p pd=0u as=0p ps=0u w=420000u l=150000u
X6 a_466_413# a_193_47# a_381_47# VPB sky130_fd_pr__pfet_01v8_hvt ad=0p pd=0u as=0p ps=0u w=420000u l=150000u
X7 VPWR a_634_159# a_561_413# VPB sky130_fd_pr__pfet_01v8_hvt ad=0p pd=0u as=0p ps=0u w=420000u l=150000u
X8 a_634_159# a_466_413# VGND VNB sky130_fd_pr__nfet_01v8 ad=0p pd=0u as=0p ps=0u w=640000u l=150000u
X9 Q a_1059_315# VPWR VPB sky130_fd_pr__pfet_01v8_hvt ad=0p pd=0u as=0p ps=0u w=1e+06u l=150000u
X10 VGND a_1059_315# a_1490_369# VNB sky130_fd_pr__nfet_01v8 ad=0p pd=0u as=0p ps=0u w=420000u l=150000u
X11 a_634_159# a_466_413# VPWR VPB sky130_fd_pr__pfet_01v8_hvt ad=0p pd=0u as=0p ps=0u w=750000u l=150000u
X12 a_975_413# a_193_47# a_891_413# VPB sky130_fd_pr__pfet_01v8_hvt ad=0p pd=0u as=0p ps=0u w=420000u l=150000u
X13 VGND a_1059_315# a_1017_47# VNB sky130_fd_pr__nfet_01v8 ad=0p pd=0u as=0p ps=0u w=420000u l=150000u
X14 a_193_47# a_27_47# VGND VNB sky130_fd_pr__nfet_01v8 ad=0p pd=0u as=0p ps=0u w=420000u l=150000u
X15 a_891_413# a_27_47# a_634_159# VPB sky130_fd_pr__pfet_01v8_hvt ad=0p pd=0u as=0p ps=0u w=420000u l=150000u
X16 a_592_47# a_193_47# a_466_413# VNB sky130_fd_pr__nfet_01v8 ad=0p pd=0u as=0p ps=0u w=360000u l=150000u
X17 VPWR a_891_413# a_1059_315# VPB sky130_fd_pr__pfet_01v8_hvt ad=0p pd=0u as=0p ps=0u w=1e+06u l=150000u
X18 a_1017_47# a_27_47# a_891_413# VNB sky130_fd_pr__nfet_01v8 ad=0p pd=0u as=0p ps=0u w=360000u l=150000u
X19 VPWR a_1059_315# a_975_413# VPB sky130_fd_pr__pfet_01v8_hvt ad=0p pd=0u as=0p ps=0u w=420000u l=150000u
X20 a_466_413# a_27_47# a_381_47# VNB sky130_fd_pr__nfet_01v8 ad=0p pd=0u as=0p ps=0u w=360000u l=150000u
X21 a_193_47# a_27_47# VPWR VPB sky130_fd_pr__pfet_01v8_hvt ad=0p pd=0u as=0p ps=0u w=640000u l=150000u
X22 VGND a_891_413# a_1059_315# VNB sky130_fd_pr__nfet_01v8 ad=0p pd=0u as=0p ps=0u w=650000u l=150000u
X23 Q_N a_1490_369# VGND VNB sky130_fd_pr__nfet_01v8 ad=0p pd=0u as=0p ps=0u w=650000u l=150000u
X24 a_381_47# D VGND VNB sky130_fd_pr__nfet_01v8 ad=0p pd=0u as=0p ps=0u w=420000u l=150000u
X25 Q_N a_1490_369# VPWR VPB sky130_fd_pr__pfet_01v8_hvt ad=0p pd=0u as=0p ps=0u w=1e+06u l=150000u
X26 VGND CLK a_27_47# VNB sky130_fd_pr__nfet_01v8 ad=0p pd=0u as=0p ps=0u w=420000u l=150000u
X27 VPWR a_1059_315# a_1490_369# VPB sky130_fd_pr__pfet_01v8_hvt ad=0p pd=0u as=0p ps=0u w=640000u l=150000u
.ends

.subckt sky130_fd_sc_hd__decap_8 VPWR VGND VNB VPB
X0 VPWR VGND VPWR VPB sky130_fd_pr__pfet_01v8_hvt ad=0p pd=0u as=0p ps=0u w=870000u l=2.89e+06u
X1 VGND VPWR VGND VNB sky130_fd_pr__nfet_01v8 ad=0p pd=0u as=0p ps=0u w=550000u l=2.89e+06u
.ends

.subckt sky130_fd_sc_hd__clkbuf_16 X A VGND VPWR VNB VPB
X0 VPWR A a_110_47# VPB sky130_fd_pr__pfet_01v8_hvt ad=0p pd=0u as=0p ps=0u w=1e+06u l=150000u
X1 VPWR a_110_47# X VPB sky130_fd_pr__pfet_01v8_hvt ad=0p pd=0u as=0p ps=0u w=1e+06u l=150000u
X2 X a_110_47# VPWR VPB sky130_fd_pr__pfet_01v8_hvt ad=0p pd=0u as=0p ps=0u w=1e+06u l=150000u
X3 X a_110_47# VPWR VPB sky130_fd_pr__pfet_01v8_hvt ad=0p pd=0u as=0p ps=0u w=1e+06u l=150000u
X4 VPWR a_110_47# X VPB sky130_fd_pr__pfet_01v8_hvt ad=0p pd=0u as=0p ps=0u w=1e+06u l=150000u
X5 VPWR a_110_47# X VPB sky130_fd_pr__pfet_01v8_hvt ad=0p pd=0u as=0p ps=0u w=1e+06u l=150000u
X6 a_110_47# A VPWR VPB sky130_fd_pr__pfet_01v8_hvt ad=0p pd=0u as=0p ps=0u w=1e+06u l=150000u
X7 a_110_47# A VGND VNB sky130_fd_pr__nfet_01v8 ad=0p pd=0u as=0p ps=0u w=420000u l=150000u
X8 VGND a_110_47# X VNB sky130_fd_pr__nfet_01v8 ad=0p pd=0u as=0p ps=0u w=420000u l=150000u
X9 X a_110_47# VGND VNB sky130_fd_pr__nfet_01v8 ad=0p pd=0u as=0p ps=0u w=420000u l=150000u
X10 VGND a_110_47# X VNB sky130_fd_pr__nfet_01v8 ad=0p pd=0u as=0p ps=0u w=420000u l=150000u
X11 a_110_47# A VPWR VPB sky130_fd_pr__pfet_01v8_hvt ad=0p pd=0u as=0p ps=0u w=1e+06u l=150000u
X12 VGND A a_110_47# VNB sky130_fd_pr__nfet_01v8 ad=0p pd=0u as=0p ps=0u w=420000u l=150000u
X13 VGND a_110_47# X VNB sky130_fd_pr__nfet_01v8 ad=0p pd=0u as=0p ps=0u w=420000u l=150000u
X14 VPWR a_110_47# X VPB sky130_fd_pr__pfet_01v8_hvt ad=0p pd=0u as=0p ps=0u w=1e+06u l=150000u
X15 X a_110_47# VPWR VPB sky130_fd_pr__pfet_01v8_hvt ad=0p pd=0u as=0p ps=0u w=1e+06u l=150000u
X16 VGND A a_110_47# VNB sky130_fd_pr__nfet_01v8 ad=0p pd=0u as=0p ps=0u w=420000u l=150000u
X17 VGND a_110_47# X VNB sky130_fd_pr__nfet_01v8 ad=0p pd=0u as=0p ps=0u w=420000u l=150000u
X18 VPWR a_110_47# X VPB sky130_fd_pr__pfet_01v8_hvt ad=0p pd=0u as=0p ps=0u w=1e+06u l=150000u
X19 VGND a_110_47# X VNB sky130_fd_pr__nfet_01v8 ad=0p pd=0u as=0p ps=0u w=420000u l=150000u
X20 X a_110_47# VPWR VPB sky130_fd_pr__pfet_01v8_hvt ad=0p pd=0u as=0p ps=0u w=1e+06u l=150000u
X21 a_110_47# A VGND VNB sky130_fd_pr__nfet_01v8 ad=0p pd=0u as=0p ps=0u w=420000u l=150000u
X22 VPWR A a_110_47# VPB sky130_fd_pr__pfet_01v8_hvt ad=0p pd=0u as=0p ps=0u w=1e+06u l=150000u
X23 VPWR a_110_47# X VPB sky130_fd_pr__pfet_01v8_hvt ad=0p pd=0u as=0p ps=0u w=1e+06u l=150000u
X24 VPWR a_110_47# X VPB sky130_fd_pr__pfet_01v8_hvt ad=0p pd=0u as=0p ps=0u w=1e+06u l=150000u
X25 VGND a_110_47# X VNB sky130_fd_pr__nfet_01v8 ad=0p pd=0u as=0p ps=0u w=420000u l=150000u
X26 X a_110_47# VPWR VPB sky130_fd_pr__pfet_01v8_hvt ad=0p pd=0u as=0p ps=0u w=1e+06u l=150000u
X27 VGND a_110_47# X VNB sky130_fd_pr__nfet_01v8 ad=0p pd=0u as=0p ps=0u w=420000u l=150000u
X28 VGND a_110_47# X VNB sky130_fd_pr__nfet_01v8 ad=0p pd=0u as=0p ps=0u w=420000u l=150000u
X29 X a_110_47# VGND VNB sky130_fd_pr__nfet_01v8 ad=0p pd=0u as=0p ps=0u w=420000u l=150000u
X30 X a_110_47# VPWR VPB sky130_fd_pr__pfet_01v8_hvt ad=0p pd=0u as=0p ps=0u w=1e+06u l=150000u
X31 X a_110_47# VPWR VPB sky130_fd_pr__pfet_01v8_hvt ad=0p pd=0u as=0p ps=0u w=1e+06u l=150000u
X32 X a_110_47# VGND VNB sky130_fd_pr__nfet_01v8 ad=0p pd=0u as=0p ps=0u w=420000u l=150000u
X33 VPWR a_110_47# X VPB sky130_fd_pr__pfet_01v8_hvt ad=0p pd=0u as=0p ps=0u w=1e+06u l=150000u
X34 X a_110_47# VPWR VPB sky130_fd_pr__pfet_01v8_hvt ad=0p pd=0u as=0p ps=0u w=1e+06u l=150000u
X35 X a_110_47# VGND VNB sky130_fd_pr__nfet_01v8 ad=0p pd=0u as=0p ps=0u w=420000u l=150000u
X36 X a_110_47# VGND VNB sky130_fd_pr__nfet_01v8 ad=0p pd=0u as=0p ps=0u w=420000u l=150000u
X37 X a_110_47# VGND VNB sky130_fd_pr__nfet_01v8 ad=0p pd=0u as=0p ps=0u w=420000u l=150000u
X38 X a_110_47# VGND VNB sky130_fd_pr__nfet_01v8 ad=0p pd=0u as=0p ps=0u w=420000u l=150000u
X39 X a_110_47# VGND VNB sky130_fd_pr__nfet_01v8 ad=0p pd=0u as=0p ps=0u w=420000u l=150000u
.ends

.subckt sky130_fd_sc_hd__nand2_1 Y B A VGND VPWR VNB VPB
X0 VPWR A Y VPB sky130_fd_pr__pfet_01v8_hvt ad=0p pd=0u as=0p ps=0u w=1e+06u l=150000u
X1 Y A a_113_47# VNB sky130_fd_pr__nfet_01v8 ad=0p pd=0u as=0p ps=0u w=650000u l=150000u
X2 a_113_47# B VGND VNB sky130_fd_pr__nfet_01v8 ad=0p pd=0u as=0p ps=0u w=650000u l=150000u
X3 Y B VPWR VPB sky130_fd_pr__pfet_01v8_hvt ad=0p pd=0u as=0p ps=0u w=1e+06u l=150000u
.ends

.subckt sky130_fd_sc_hd__clkinv_1 Y A VGND VPWR VNB VPB
X0 Y A VPWR VPB sky130_fd_pr__pfet_01v8_hvt ad=0p pd=0u as=0p ps=0u w=840000u l=150000u
X1 VGND A Y VNB sky130_fd_pr__nfet_01v8 ad=0p pd=0u as=0p ps=0u w=420000u l=150000u
X2 VPWR A Y VPB sky130_fd_pr__pfet_01v8_hvt ad=0p pd=0u as=0p ps=0u w=840000u l=150000u
.ends

.subckt sky130_fd_sc_hd__mux2_1 VGND VPWR S A1 A0 X VNB VPB
X0 VPWR a_505_21# a_535_374# VPB sky130_fd_pr__pfet_01v8_hvt ad=0p pd=0u as=0p ps=0u w=420000u l=150000u
X1 a_505_21# S VPWR VPB sky130_fd_pr__pfet_01v8_hvt ad=0p pd=0u as=0p ps=0u w=420000u l=150000u
X2 a_218_374# S VPWR VPB sky130_fd_pr__pfet_01v8_hvt ad=0p pd=0u as=0p ps=0u w=420000u l=150000u
X3 VGND a_505_21# a_439_47# VNB sky130_fd_pr__nfet_01v8 ad=0p pd=0u as=0p ps=0u w=420000u l=150000u
X4 a_76_199# A0 a_218_374# VPB sky130_fd_pr__pfet_01v8_hvt ad=0p pd=0u as=0p ps=0u w=420000u l=150000u
X5 a_505_21# S VGND VNB sky130_fd_pr__nfet_01v8 ad=0p pd=0u as=0p ps=0u w=420000u l=150000u
X6 a_439_47# A0 a_76_199# VNB sky130_fd_pr__nfet_01v8 ad=0p pd=0u as=0p ps=0u w=420000u l=150000u
X7 a_535_374# A1 a_76_199# VPB sky130_fd_pr__pfet_01v8_hvt ad=0p pd=0u as=0p ps=0u w=420000u l=150000u
X8 a_76_199# A1 a_218_47# VNB sky130_fd_pr__nfet_01v8 ad=0p pd=0u as=0p ps=0u w=420000u l=150000u
X9 a_218_47# S VGND VNB sky130_fd_pr__nfet_01v8 ad=0p pd=0u as=0p ps=0u w=420000u l=150000u
X10 VPWR a_76_199# X VPB sky130_fd_pr__pfet_01v8_hvt ad=0p pd=0u as=0p ps=0u w=1e+06u l=150000u
X11 VGND a_76_199# X VNB sky130_fd_pr__nfet_01v8 ad=0p pd=0u as=0p ps=0u w=650000u l=150000u
.ends

.subckt clock_generator p2d_b p2d p2_b p2 p1d_b p1d p1_b p1 Ad_b Ad A_b A Bd_b Bd
+ B_b B clk VSS VDD
Xsky130_fd_sc_hd__decap_6_13 VDD VSS VSS VDD sky130_fd_sc_hd__decap_6
Xsky130_fd_sc_hd__decap_3_25 VDD VSS VSS VDD sky130_fd_sc_hd__decap_3
Xsky130_fd_sc_hd__decap_3_14 VDD VSS VSS VDD sky130_fd_sc_hd__decap_3
Xsky130_fd_sc_hd__decap_12_10 VSS VDD VSS VDD sky130_fd_sc_hd__decap_12
Xsky130_fd_sc_hd__decap_6_14 VDD VSS VSS VDD sky130_fd_sc_hd__decap_6
Xsky130_fd_sc_hd__decap_3_15 VDD VSS VSS VDD sky130_fd_sc_hd__decap_3
Xsky130_fd_sc_hd__decap_3_26 VDD VSS VSS VDD sky130_fd_sc_hd__decap_3
Xsky130_fd_sc_hd__decap_12_11 VSS VDD VSS VDD sky130_fd_sc_hd__decap_12
Xsky130_fd_sc_hd__decap_6_15 VDD VSS VSS VDD sky130_fd_sc_hd__decap_6
Xsky130_fd_sc_hd__decap_3_16 VDD VSS VSS VDD sky130_fd_sc_hd__decap_3
Xsky130_fd_sc_hd__clkdlybuf4s50_1_0 sky130_fd_sc_hd__clkdlybuf4s50_1_4/X sky130_fd_sc_hd__clkdlybuf4s50_1_2/A
+ VSS VDD VSS VDD sky130_fd_sc_hd__clkdlybuf4s50_1
Xsky130_fd_sc_hd__decap_3_27 VDD VSS VSS VDD sky130_fd_sc_hd__decap_3
Xsky130_fd_sc_hd__decap_12_12 VSS VDD VSS VDD sky130_fd_sc_hd__decap_12
Xsky130_fd_sc_hd__decap_6_16 VDD VSS VSS VDD sky130_fd_sc_hd__decap_6
Xsky130_fd_sc_hd__clkdlybuf4s50_1_1 sky130_fd_sc_hd__clkdlybuf4s50_1_5/X sky130_fd_sc_hd__clkdlybuf4s50_1_3/A
+ VSS VDD VSS VDD sky130_fd_sc_hd__clkdlybuf4s50_1
Xsky130_fd_sc_hd__decap_3_28 VDD VSS VSS VDD sky130_fd_sc_hd__decap_3
Xsky130_fd_sc_hd__decap_3_17 VDD VSS VSS VDD sky130_fd_sc_hd__decap_3
Xsky130_fd_sc_hd__decap_12_13 VSS VDD VSS VDD sky130_fd_sc_hd__decap_12
Xsky130_fd_sc_hd__decap_6_17 VDD VSS VSS VDD sky130_fd_sc_hd__decap_6
Xsky130_fd_sc_hd__decap_3_18 VDD VSS VSS VDD sky130_fd_sc_hd__decap_3
Xsky130_fd_sc_hd__clkdlybuf4s50_1_2 sky130_fd_sc_hd__clkdlybuf4s50_1_2/A sky130_fd_sc_hd__clkdlybuf4s50_1_6/A
+ VSS VDD VSS VDD sky130_fd_sc_hd__clkdlybuf4s50_1
Xsky130_fd_sc_hd__decap_12_14 VSS VDD VSS VDD sky130_fd_sc_hd__decap_12
Xsky130_fd_sc_hd__nand2_4_0 sky130_fd_sc_hd__nand2_4_0/Y sky130_fd_sc_hd__nand2_4_0/A
+ sky130_fd_sc_hd__nand2_4_0/B VSS VDD VSS VDD sky130_fd_sc_hd__nand2_4
Xsky130_fd_sc_hd__decap_6_18 VDD VSS VSS VDD sky130_fd_sc_hd__decap_6
Xsky130_fd_sc_hd__clkdlybuf4s50_1_3 sky130_fd_sc_hd__clkdlybuf4s50_1_3/A sky130_fd_sc_hd__clkdlybuf4s50_1_7/A
+ VSS VDD VSS VDD sky130_fd_sc_hd__clkdlybuf4s50_1
Xsky130_fd_sc_hd__decap_3_19 VDD VSS VSS VDD sky130_fd_sc_hd__decap_3
Xsky130_fd_sc_hd__decap_4_40 VSS VDD VSS VDD sky130_fd_sc_hd__decap_4
Xsky130_fd_sc_hd__clkinvlp_2_0 VSS VDD Bd_b Bd VSS VDD sky130_fd_sc_hd__clkinvlp_2
Xsky130_fd_sc_hd__decap_12_15 VSS VDD VSS VDD sky130_fd_sc_hd__decap_12
Xsky130_fd_sc_hd__nand2_4_1 sky130_fd_sc_hd__nand2_4_1/Y sky130_fd_sc_hd__nand2_4_1/A
+ sky130_fd_sc_hd__nand2_4_1/B VSS VDD VSS VDD sky130_fd_sc_hd__nand2_4
Xsky130_fd_sc_hd__decap_6_19 VDD VSS VSS VDD sky130_fd_sc_hd__decap_6
Xsky130_fd_sc_hd__clkinv_4_0 sky130_fd_sc_hd__nand2_4_0/Y sky130_fd_sc_hd__clkinv_4_0/Y
+ VDD VSS VSS VDD sky130_fd_sc_hd__clkinv_4
Xsky130_fd_sc_hd__clkdlybuf4s50_1_4 sky130_fd_sc_hd__clkinv_4_1/Y sky130_fd_sc_hd__clkdlybuf4s50_1_4/X
+ VSS VDD VSS VDD sky130_fd_sc_hd__clkdlybuf4s50_1
Xsky130_fd_sc_hd__decap_4_41 VSS VDD VSS VDD sky130_fd_sc_hd__decap_4
Xsky130_fd_sc_hd__decap_4_30 VSS VDD VSS VDD sky130_fd_sc_hd__decap_4
Xsky130_fd_sc_hd__decap_12_16 VSS VDD VSS VDD sky130_fd_sc_hd__decap_12
Xsky130_fd_sc_hd__clkinvlp_2_1 VSS VDD Ad_b Ad VSS VDD sky130_fd_sc_hd__clkinvlp_2
Xsky130_fd_sc_hd__clkdlybuf4s50_1_5 sky130_fd_sc_hd__clkinv_4_0/Y sky130_fd_sc_hd__clkdlybuf4s50_1_5/X
+ VSS VDD VSS VDD sky130_fd_sc_hd__clkdlybuf4s50_1
Xsky130_fd_sc_hd__clkinv_4_1 sky130_fd_sc_hd__nand2_4_1/Y sky130_fd_sc_hd__clkinv_4_1/Y
+ VDD VSS VSS VDD sky130_fd_sc_hd__clkinv_4
Xsky130_fd_sc_hd__decap_4_20 VSS VDD VSS VDD sky130_fd_sc_hd__decap_4
Xsky130_fd_sc_hd__decap_4_31 VSS VDD VSS VDD sky130_fd_sc_hd__decap_4
Xsky130_fd_sc_hd__decap_4_42 VSS VDD VSS VDD sky130_fd_sc_hd__decap_4
Xsky130_fd_sc_hd__decap_12_17 VSS VDD VSS VDD sky130_fd_sc_hd__decap_12
Xsky130_fd_sc_hd__clkinvlp_2_2 VSS VDD sky130_fd_sc_hd__nand2_1_3/B sky130_fd_sc_hd__nand2_1_4/A
+ VSS VDD sky130_fd_sc_hd__clkinvlp_2
Xsky130_fd_sc_hd__clkinv_4_2 sky130_fd_sc_hd__clkinv_4_4/Y sky130_fd_sc_hd__clkinv_4_2/Y
+ VDD VSS VSS VDD sky130_fd_sc_hd__clkinv_4
Xsky130_fd_sc_hd__clkdlybuf4s50_1_6 sky130_fd_sc_hd__clkdlybuf4s50_1_6/A sky130_fd_sc_hd__clkdlybuf4s50_1_8/A
+ VSS VDD VSS VDD sky130_fd_sc_hd__clkdlybuf4s50_1
Xsky130_fd_sc_hd__decap_4_21 VSS VDD VSS VDD sky130_fd_sc_hd__decap_4
Xsky130_fd_sc_hd__decap_4_32 VSS VDD VSS VDD sky130_fd_sc_hd__decap_4
Xsky130_fd_sc_hd__decap_4_43 VSS VDD VSS VDD sky130_fd_sc_hd__decap_4
Xsky130_fd_sc_hd__decap_4_10 VSS VDD VSS VDD sky130_fd_sc_hd__decap_4
Xsky130_fd_sc_hd__clkinvlp_2_3 VSS VDD B B_b VSS VDD sky130_fd_sc_hd__clkinvlp_2
Xsky130_fd_sc_hd__decap_3_0 VDD VSS VSS VDD sky130_fd_sc_hd__decap_3
Xsky130_fd_sc_hd__clkdlybuf4s50_1_7 sky130_fd_sc_hd__clkdlybuf4s50_1_7/A sky130_fd_sc_hd__clkdlybuf4s50_1_9/A
+ VSS VDD VSS VDD sky130_fd_sc_hd__clkdlybuf4s50_1
Xsky130_fd_sc_hd__clkinv_4_3 sky130_fd_sc_hd__clkinv_4_5/Y sky130_fd_sc_hd__clkinv_4_3/Y
+ VDD VSS VSS VDD sky130_fd_sc_hd__clkinv_4
Xsky130_fd_sc_hd__decap_4_44 VSS VDD VSS VDD sky130_fd_sc_hd__decap_4
Xsky130_fd_sc_hd__decap_4_22 VSS VDD VSS VDD sky130_fd_sc_hd__decap_4
Xsky130_fd_sc_hd__decap_4_11 VSS VDD VSS VDD sky130_fd_sc_hd__decap_4
Xsky130_fd_sc_hd__decap_4_33 VSS VDD VSS VDD sky130_fd_sc_hd__decap_4
Xsky130_fd_sc_hd__clkinvlp_2_4 VSS VDD A A_b VSS VDD sky130_fd_sc_hd__clkinvlp_2
Xsky130_fd_sc_hd__decap_3_1 VDD VSS VSS VDD sky130_fd_sc_hd__decap_3
Xsky130_fd_sc_hd__clkdlybuf4s50_1_8 sky130_fd_sc_hd__clkdlybuf4s50_1_8/A sky130_fd_sc_hd__clkdlybuf4s50_1_8/X
+ VSS VDD VSS VDD sky130_fd_sc_hd__clkdlybuf4s50_1
Xsky130_fd_sc_hd__clkinv_4_4 sky130_fd_sc_hd__nand2_4_0/A sky130_fd_sc_hd__clkinv_4_4/Y
+ VDD VSS VSS VDD sky130_fd_sc_hd__clkinv_4
Xsky130_fd_sc_hd__decap_4_23 VSS VDD VSS VDD sky130_fd_sc_hd__decap_4
Xsky130_fd_sc_hd__decap_4_34 VSS VDD VSS VDD sky130_fd_sc_hd__decap_4
Xsky130_fd_sc_hd__decap_4_45 VSS VDD VSS VDD sky130_fd_sc_hd__decap_4
Xsky130_fd_sc_hd__decap_4_12 VSS VDD VSS VDD sky130_fd_sc_hd__decap_4
Xsky130_fd_sc_hd__decap_3_2 VDD VSS VSS VDD sky130_fd_sc_hd__decap_3
Xsky130_fd_sc_hd__clkdlybuf4s50_1_9 sky130_fd_sc_hd__clkdlybuf4s50_1_9/A sky130_fd_sc_hd__clkdlybuf4s50_1_9/X
+ VSS VDD VSS VDD sky130_fd_sc_hd__clkdlybuf4s50_1
Xsky130_fd_sc_hd__clkinv_4_5 sky130_fd_sc_hd__nand2_4_1/A sky130_fd_sc_hd__clkinv_4_5/Y
+ VDD VSS VSS VDD sky130_fd_sc_hd__clkinv_4
Xsky130_fd_sc_hd__decap_4_24 VSS VDD VSS VDD sky130_fd_sc_hd__decap_4
Xsky130_fd_sc_hd__decap_4_13 VSS VDD VSS VDD sky130_fd_sc_hd__decap_4
Xsky130_fd_sc_hd__decap_4_35 VSS VDD VSS VDD sky130_fd_sc_hd__decap_4
Xsky130_fd_sc_hd__decap_4_46 VSS VDD VSS VDD sky130_fd_sc_hd__decap_4
Xsky130_fd_sc_hd__decap_3_3 VDD VSS VSS VDD sky130_fd_sc_hd__decap_3
Xsky130_fd_sc_hd__decap_4_36 VSS VDD VSS VDD sky130_fd_sc_hd__decap_4
Xsky130_fd_sc_hd__decap_4_25 VSS VDD VSS VDD sky130_fd_sc_hd__decap_4
Xsky130_fd_sc_hd__decap_4_14 VSS VDD VSS VDD sky130_fd_sc_hd__decap_4
Xsky130_fd_sc_hd__decap_3_4 VDD VSS VSS VDD sky130_fd_sc_hd__decap_3
Xsky130_fd_sc_hd__clkdlybuf4s50_1_90 sky130_fd_sc_hd__clkdlybuf4s50_1_90/A sky130_fd_sc_hd__clkdlybuf4s50_1_94/A
+ VSS VDD VSS VDD sky130_fd_sc_hd__clkdlybuf4s50_1
Xsky130_fd_sc_hd__decap_4_37 VSS VDD VSS VDD sky130_fd_sc_hd__decap_4
Xsky130_fd_sc_hd__decap_4_15 VSS VDD VSS VDD sky130_fd_sc_hd__decap_4
Xsky130_fd_sc_hd__decap_4_26 VSS VDD VSS VDD sky130_fd_sc_hd__decap_4
Xsky130_fd_sc_hd__decap_3_5 VDD VSS VSS VDD sky130_fd_sc_hd__decap_3
Xsky130_fd_sc_hd__clkdlybuf4s50_1_91 sky130_fd_sc_hd__clkdlybuf4s50_1_91/A sky130_fd_sc_hd__clkdlybuf4s50_1_95/A
+ VSS VDD VSS VDD sky130_fd_sc_hd__clkdlybuf4s50_1
Xsky130_fd_sc_hd__clkdlybuf4s50_1_80 sky130_fd_sc_hd__clkdlybuf4s50_1_80/A sky130_fd_sc_hd__clkdlybuf4s50_1_82/A
+ VSS VDD VSS VDD sky130_fd_sc_hd__clkdlybuf4s50_1
Xsky130_fd_sc_hd__decap_4_16 VSS VDD VSS VDD sky130_fd_sc_hd__decap_4
Xsky130_fd_sc_hd__decap_4_27 VSS VDD VSS VDD sky130_fd_sc_hd__decap_4
Xsky130_fd_sc_hd__decap_4_38 VSS VDD VSS VDD sky130_fd_sc_hd__decap_4
Xsky130_fd_sc_hd__decap_3_6 VDD VSS VSS VDD sky130_fd_sc_hd__decap_3
Xsky130_fd_sc_hd__clkdlybuf4s50_1_81 sky130_fd_sc_hd__clkdlybuf4s50_1_81/A sky130_fd_sc_hd__clkdlybuf4s50_1_83/A
+ VSS VDD VSS VDD sky130_fd_sc_hd__clkdlybuf4s50_1
Xsky130_fd_sc_hd__clkdlybuf4s50_1_70 sky130_fd_sc_hd__clkdlybuf4s50_1_70/A sky130_fd_sc_hd__clkdlybuf4s50_1_72/A
+ VSS VDD VSS VDD sky130_fd_sc_hd__clkdlybuf4s50_1
Xsky130_fd_sc_hd__clkdlybuf4s50_1_92 sky130_fd_sc_hd__clkdlybuf4s50_1_96/X sky130_fd_sc_hd__clkdlybuf4s50_1_92/X
+ VSS VDD VSS VDD sky130_fd_sc_hd__clkdlybuf4s50_1
Xsky130_fd_sc_hd__decap_4_17 VSS VDD VSS VDD sky130_fd_sc_hd__decap_4
Xsky130_fd_sc_hd__decap_4_28 VSS VDD VSS VDD sky130_fd_sc_hd__decap_4
Xsky130_fd_sc_hd__decap_4_39 VSS VDD VSS VDD sky130_fd_sc_hd__decap_4
Xsky130_fd_sc_hd__decap_12_0 VSS VDD VSS VDD sky130_fd_sc_hd__decap_12
Xsky130_fd_sc_hd__decap_3_7 VDD VSS VSS VDD sky130_fd_sc_hd__decap_3
Xsky130_fd_sc_hd__clkdlybuf4s50_1_93 sky130_fd_sc_hd__clkdlybuf4s50_1_97/X sky130_fd_sc_hd__clkdlybuf4s50_1_93/X
+ VSS VDD VSS VDD sky130_fd_sc_hd__clkdlybuf4s50_1
Xsky130_fd_sc_hd__clkdlybuf4s50_1_60 sky130_fd_sc_hd__clkdlybuf4s50_1_60/A sky130_fd_sc_hd__clkdlybuf4s50_1_62/A
+ VSS VDD VSS VDD sky130_fd_sc_hd__clkdlybuf4s50_1
Xsky130_fd_sc_hd__clkdlybuf4s50_1_82 sky130_fd_sc_hd__clkdlybuf4s50_1_82/A sky130_fd_sc_hd__clkdlybuf4s50_1_86/A
+ VSS VDD VSS VDD sky130_fd_sc_hd__clkdlybuf4s50_1
Xsky130_fd_sc_hd__clkdlybuf4s50_1_71 sky130_fd_sc_hd__clkdlybuf4s50_1_71/A sky130_fd_sc_hd__clkdlybuf4s50_1_73/A
+ VSS VDD VSS VDD sky130_fd_sc_hd__clkdlybuf4s50_1
Xsky130_fd_sc_hd__dfxbp_1_0 VSS VDD sky130_fd_sc_hd__dfxbp_1_0/Q_N sky130_fd_sc_hd__nand2_1_4/A
+ p2 sky130_fd_sc_hd__mux2_1_0/S VSS VDD sky130_fd_sc_hd__dfxbp_1
Xsky130_fd_sc_hd__decap_4_29 VSS VDD VSS VDD sky130_fd_sc_hd__decap_4
Xsky130_fd_sc_hd__decap_4_18 VSS VDD VSS VDD sky130_fd_sc_hd__decap_4
Xsky130_fd_sc_hd__decap_12_1 VSS VDD VSS VDD sky130_fd_sc_hd__decap_12
Xsky130_fd_sc_hd__decap_3_8 VDD VSS VSS VDD sky130_fd_sc_hd__decap_3
Xsky130_fd_sc_hd__clkdlybuf4s50_1_50 sky130_fd_sc_hd__clkdlybuf4s50_1_50/A sky130_fd_sc_hd__clkdlybuf4s50_1_52/A
+ VSS VDD VSS VDD sky130_fd_sc_hd__clkdlybuf4s50_1
Xsky130_fd_sc_hd__clkdlybuf4s50_1_83 sky130_fd_sc_hd__clkdlybuf4s50_1_83/A sky130_fd_sc_hd__clkdlybuf4s50_1_87/A
+ VSS VDD VSS VDD sky130_fd_sc_hd__clkdlybuf4s50_1
Xsky130_fd_sc_hd__clkdlybuf4s50_1_94 sky130_fd_sc_hd__clkdlybuf4s50_1_94/A sky130_fd_sc_hd__clkdlybuf4s50_1_98/A
+ VSS VDD VSS VDD sky130_fd_sc_hd__clkdlybuf4s50_1
Xsky130_fd_sc_hd__clkdlybuf4s50_1_72 sky130_fd_sc_hd__clkdlybuf4s50_1_72/A sky130_fd_sc_hd__clkdlybuf4s50_1_74/A
+ VSS VDD VSS VDD sky130_fd_sc_hd__clkdlybuf4s50_1
Xsky130_fd_sc_hd__clkdlybuf4s50_1_61 sky130_fd_sc_hd__clkdlybuf4s50_1_61/A sky130_fd_sc_hd__clkdlybuf4s50_1_63/A
+ VSS VDD VSS VDD sky130_fd_sc_hd__clkdlybuf4s50_1
Xsky130_fd_sc_hd__dfxbp_1_1 VSS VDD sky130_fd_sc_hd__dfxbp_1_1/D sky130_fd_sc_hd__dfxbp_1_1/D
+ clk sky130_fd_sc_hd__nand2_1_4/A VSS VDD sky130_fd_sc_hd__dfxbp_1
Xsky130_fd_sc_hd__decap_4_19 VSS VDD VSS VDD sky130_fd_sc_hd__decap_4
Xsky130_fd_sc_hd__decap_12_2 VSS VDD VSS VDD sky130_fd_sc_hd__decap_12
Xsky130_fd_sc_hd__decap_3_9 VDD VSS VSS VDD sky130_fd_sc_hd__decap_3
Xsky130_fd_sc_hd__clkdlybuf4s50_1_51 sky130_fd_sc_hd__clkdlybuf4s50_1_51/A sky130_fd_sc_hd__clkdlybuf4s50_1_53/A
+ VSS VDD VSS VDD sky130_fd_sc_hd__clkdlybuf4s50_1
Xsky130_fd_sc_hd__clkdlybuf4s50_1_40 sky130_fd_sc_hd__clkdlybuf4s50_1_40/A sky130_fd_sc_hd__clkdlybuf4s50_1_42/A
+ VSS VDD VSS VDD sky130_fd_sc_hd__clkdlybuf4s50_1
Xsky130_fd_sc_hd__clkdlybuf4s50_1_95 sky130_fd_sc_hd__clkdlybuf4s50_1_95/A sky130_fd_sc_hd__clkdlybuf4s50_1_99/A
+ VSS VDD VSS VDD sky130_fd_sc_hd__clkdlybuf4s50_1
Xsky130_fd_sc_hd__clkdlybuf4s50_1_62 sky130_fd_sc_hd__clkdlybuf4s50_1_62/A sky130_fd_sc_hd__clkdlybuf4s50_1_64/A
+ VSS VDD VSS VDD sky130_fd_sc_hd__clkdlybuf4s50_1
Xsky130_fd_sc_hd__clkdlybuf4s50_1_73 sky130_fd_sc_hd__clkdlybuf4s50_1_73/A sky130_fd_sc_hd__clkdlybuf4s50_1_75/A
+ VSS VDD VSS VDD sky130_fd_sc_hd__clkdlybuf4s50_1
Xsky130_fd_sc_hd__clkdlybuf4s50_1_84 sky130_fd_sc_hd__clkdlybuf4s50_1_88/X sky130_fd_sc_hd__nand2_4_0/B
+ VSS VDD VSS VDD sky130_fd_sc_hd__clkdlybuf4s50_1
Xsky130_fd_sc_hd__decap_12_3 VSS VDD VSS VDD sky130_fd_sc_hd__decap_12
Xsky130_fd_sc_hd__decap_8_0 VDD VSS VSS VDD sky130_fd_sc_hd__decap_8
Xsky130_fd_sc_hd__clkdlybuf4s50_1_41 sky130_fd_sc_hd__clkdlybuf4s50_1_41/A sky130_fd_sc_hd__clkdlybuf4s50_1_43/A
+ VSS VDD VSS VDD sky130_fd_sc_hd__clkdlybuf4s50_1
Xsky130_fd_sc_hd__clkdlybuf4s50_1_96 sky130_fd_sc_hd__clkinv_1_2/Y sky130_fd_sc_hd__clkdlybuf4s50_1_96/X
+ VSS VDD VSS VDD sky130_fd_sc_hd__clkdlybuf4s50_1
Xsky130_fd_sc_hd__clkdlybuf4s50_1_30 sky130_fd_sc_hd__clkdlybuf4s50_1_30/A sky130_fd_sc_hd__clkdlybuf4s50_1_32/A
+ VSS VDD VSS VDD sky130_fd_sc_hd__clkdlybuf4s50_1
Xsky130_fd_sc_hd__clkdlybuf4s50_1_52 sky130_fd_sc_hd__clkdlybuf4s50_1_52/A sky130_fd_sc_hd__clkdlybuf4s50_1_54/A
+ VSS VDD VSS VDD sky130_fd_sc_hd__clkdlybuf4s50_1
Xsky130_fd_sc_hd__clkdlybuf4s50_1_85 sky130_fd_sc_hd__clkdlybuf4s50_1_89/X sky130_fd_sc_hd__nand2_4_1/B
+ VSS VDD VSS VDD sky130_fd_sc_hd__clkdlybuf4s50_1
Xsky130_fd_sc_hd__clkdlybuf4s50_1_74 sky130_fd_sc_hd__clkdlybuf4s50_1_74/A sky130_fd_sc_hd__clkdlybuf4s50_1_76/A
+ VSS VDD VSS VDD sky130_fd_sc_hd__clkdlybuf4s50_1
Xsky130_fd_sc_hd__clkdlybuf4s50_1_63 sky130_fd_sc_hd__clkdlybuf4s50_1_63/A sky130_fd_sc_hd__clkdlybuf4s50_1_65/A
+ VSS VDD VSS VDD sky130_fd_sc_hd__clkdlybuf4s50_1
Xsky130_fd_sc_hd__decap_8_30 VDD VSS VSS VDD sky130_fd_sc_hd__decap_8
Xsky130_fd_sc_hd__clkbuf_16_0 p1_b sky130_fd_sc_hd__clkinv_4_2/Y VSS VDD VSS VDD sky130_fd_sc_hd__clkbuf_16
Xsky130_fd_sc_hd__decap_12_4 VSS VDD VSS VDD sky130_fd_sc_hd__decap_12
Xsky130_fd_sc_hd__decap_8_1 VDD VSS VSS VDD sky130_fd_sc_hd__decap_8
Xsky130_fd_sc_hd__clkdlybuf4s50_1_53 sky130_fd_sc_hd__clkdlybuf4s50_1_53/A sky130_fd_sc_hd__clkdlybuf4s50_1_55/A
+ VSS VDD VSS VDD sky130_fd_sc_hd__clkdlybuf4s50_1
Xsky130_fd_sc_hd__clkdlybuf4s50_1_31 sky130_fd_sc_hd__clkdlybuf4s50_1_31/A sky130_fd_sc_hd__clkdlybuf4s50_1_33/A
+ VSS VDD VSS VDD sky130_fd_sc_hd__clkdlybuf4s50_1
Xsky130_fd_sc_hd__clkdlybuf4s50_1_20 sky130_fd_sc_hd__clkdlybuf4s50_1_20/A sky130_fd_sc_hd__clkdlybuf4s50_1_22/A
+ VSS VDD VSS VDD sky130_fd_sc_hd__clkdlybuf4s50_1
Xsky130_fd_sc_hd__clkdlybuf4s50_1_42 sky130_fd_sc_hd__clkdlybuf4s50_1_42/A sky130_fd_sc_hd__clkdlybuf4s50_1_44/A
+ VSS VDD VSS VDD sky130_fd_sc_hd__clkdlybuf4s50_1
Xsky130_fd_sc_hd__clkdlybuf4s50_1_97 sky130_fd_sc_hd__clkinv_1_3/Y sky130_fd_sc_hd__clkdlybuf4s50_1_97/X
+ VSS VDD VSS VDD sky130_fd_sc_hd__clkdlybuf4s50_1
Xsky130_fd_sc_hd__clkdlybuf4s50_1_75 sky130_fd_sc_hd__clkdlybuf4s50_1_75/A sky130_fd_sc_hd__clkdlybuf4s50_1_77/A
+ VSS VDD VSS VDD sky130_fd_sc_hd__clkdlybuf4s50_1
Xsky130_fd_sc_hd__clkdlybuf4s50_1_64 sky130_fd_sc_hd__clkdlybuf4s50_1_64/A sky130_fd_sc_hd__clkdlybuf4s50_1_66/A
+ VSS VDD VSS VDD sky130_fd_sc_hd__clkdlybuf4s50_1
Xsky130_fd_sc_hd__clkdlybuf4s50_1_86 sky130_fd_sc_hd__clkdlybuf4s50_1_86/A sky130_fd_sc_hd__clkdlybuf4s50_1_90/A
+ VSS VDD VSS VDD sky130_fd_sc_hd__clkdlybuf4s50_1
Xsky130_fd_sc_hd__decap_8_31 VDD VSS VSS VDD sky130_fd_sc_hd__decap_8
Xsky130_fd_sc_hd__decap_8_20 VDD VSS VSS VDD sky130_fd_sc_hd__decap_8
Xsky130_fd_sc_hd__clkbuf_16_1 p1 sky130_fd_sc_hd__clkinv_4_4/Y VSS VDD VSS VDD sky130_fd_sc_hd__clkbuf_16
Xsky130_fd_sc_hd__decap_12_5 VSS VDD VSS VDD sky130_fd_sc_hd__decap_12
Xsky130_fd_sc_hd__decap_8_2 VDD VSS VSS VDD sky130_fd_sc_hd__decap_8
Xsky130_fd_sc_hd__clkdlybuf4s50_1_43 sky130_fd_sc_hd__clkdlybuf4s50_1_43/A sky130_fd_sc_hd__clkdlybuf4s50_1_45/A
+ VSS VDD VSS VDD sky130_fd_sc_hd__clkdlybuf4s50_1
Xsky130_fd_sc_hd__clkdlybuf4s50_1_10 sky130_fd_sc_hd__clkdlybuf4s50_1_8/X sky130_fd_sc_hd__clkdlybuf4s50_1_12/A
+ VSS VDD VSS VDD sky130_fd_sc_hd__clkdlybuf4s50_1
Xsky130_fd_sc_hd__clkdlybuf4s50_1_32 sky130_fd_sc_hd__clkdlybuf4s50_1_32/A sky130_fd_sc_hd__clkdlybuf4s50_1_34/A
+ VSS VDD VSS VDD sky130_fd_sc_hd__clkdlybuf4s50_1
Xsky130_fd_sc_hd__clkdlybuf4s50_1_54 sky130_fd_sc_hd__clkdlybuf4s50_1_54/A sky130_fd_sc_hd__clkdlybuf4s50_1_56/A
+ VSS VDD VSS VDD sky130_fd_sc_hd__clkdlybuf4s50_1