* user analog project wrapper gold spice netlist

.include "sky130_fd_sc_hd.spice"

.subckt user_analog_project_wrapper_gold vdda1 vdda2 vssa1 vssa2 vccd1 vccd2 vssd1 vssd2 wb_clk_i
+ wb_rst_i wbs_stb_i wbs_cyc_i wbs_we_i wbs_sel_i[3],wbs_sel_i[2],wbs_sel_i[1],wbs_sel_i[0]
+ wbs_dat_i[31],wbs_dat_i[30],wbs_dat_i[29],wbs_dat_i[28],wbs_dat_i[27],wbs_dat_i[26],wbs_dat_i[25],wbs_dat_i[24],wbs_dat_i[23],wbs_dat_i[22],wbs_dat_i[21],wbs_dat_i[20],wbs_dat_i[19],wbs_dat_i[18],wbs_dat_i[17],wbs_dat_i[16],wbs_dat_i[15],wbs_dat_i[14],wbs_dat_i[13],wbs_dat_i[12],wbs_dat_i[11],wbs_dat_i[10],wbs_dat_i[9],wbs_dat_i[8],wbs_dat_i[7],wbs_dat_i[6],wbs_dat_i[5],wbs_dat_i[4],wbs_dat_i[3],wbs_dat_i[2],wbs_dat_i[1],wbs_dat_i[0]
+ wbs_adr_i[31],wbs_adr_i[30],wbs_adr_i[29],wbs_adr_i[28],wbs_adr_i[27],wbs_adr_i[26],wbs_adr_i[25],wbs_adr_i[24],wbs_adr_i[23],wbs_adr_i[22],wbs_adr_i[21],wbs_adr_i[20],wbs_adr_i[19],wbs_adr_i[18],wbs_adr_i[17],wbs_adr_i[16],wbs_adr_i[15],wbs_adr_i[14],wbs_adr_i[13],wbs_adr_i[12],wbs_adr_i[11],wbs_adr_i[10],wbs_adr_i[9],wbs_adr_i[8],wbs_adr_i[7],wbs_adr_i[6],wbs_adr_i[5],wbs_adr_i[4],wbs_adr_i[3],wbs_adr_i[2],wbs_adr_i[1],wbs_adr_i[0] wbs_ack_o
+ wbs_dat_o[31],wbs_dat_o[30],wbs_dat_o[29],wbs_dat_o[28],wbs_dat_o[27],wbs_dat_o[26],wbs_dat_o[25],wbs_dat_o[24],wbs_dat_o[23],wbs_dat_o[22],wbs_dat_o[21],wbs_dat_o[20],wbs_dat_o[19],wbs_dat_o[18],wbs_dat_o[17],wbs_dat_o[16],wbs_dat_o[15],wbs_dat_o[14],wbs_dat_o[13],wbs_dat_o[12],wbs_dat_o[11],wbs_dat_o[10],wbs_dat_o[9],wbs_dat_o[8],wbs_dat_o[7],wbs_dat_o[6],wbs_dat_o[5],wbs_dat_o[4],wbs_dat_o[3],wbs_dat_o[2],wbs_dat_o[1],wbs_dat_o[0]
+ la_data_in[127],la_data_in[126],la_data_in[125],la_data_in[124],la_data_in[123],la_data_in[122],la_data_in[121],la_data_in[120],la_data_in[119],la_data_in[118],la_data_in[117],la_data_in[116],la_data_in[115],la_data_in[114],la_data_in[113],la_data_in[112],la_data_in[111],la_data_in[110],la_data_in[109],la_data_in[108],la_data_in[107],la_data_in[106],la_data_in[105],la_data_in[104],la_data_in[103],la_data_in[102],la_data_in[101],la_data_in[100],la_data_in[99],la_data_in[98],la_data_in[97],la_data_in[96],la_data_in[95],la_data_in[94],la_data_in[93],la_data_in[92],la_data_in[91],la_data_in[90],la_data_in[89],la_data_in[88],la_data_in[87],la_data_in[86],la_data_in[85],la_data_in[84],la_data_in[83],la_data_in[82],la_data_in[81],la_data_in[80],la_data_in[79],la_data_in[78],la_data_in[77],la_data_in[76],la_data_in[75],la_data_in[74],la_data_in[73],la_data_in[72],la_data_in[71],la_data_in[70],la_data_in[69],la_data_in[68],la_data_in[67],la_data_in[66],la_data_in[65],la_data_in[64],la_data_in[63],la_data_in[62],la_data_in[61],la_data_in[60],la_data_in[59],la_data_in[58],la_data_in[57],la_data_in[56],la_data_in[55],la_data_in[54],la_data_in[53],la_data_in[52],la_data_in[51],la_data_in[50],la_data_in[49],la_data_in[48],la_data_in[47],la_data_in[46],la_data_in[45],la_data_in[44],la_data_in[43],la_data_in[42],la_data_in[41],la_data_in[40],la_data_in[39],la_data_in[38],la_data_in[37],la_data_in[36],la_data_in[35],la_data_in[34],la_data_in[33],la_data_in[32],la_data_in[31],la_data_in[30],la_data_in[29],la_data_in[28],la_data_in[27],la_data_in[26],la_data_in[25],la_data_in[24],la_data_in[23],la_data_in[22],la_data_in[21],la_data_in[20],la_data_in[19],la_data_in[18],la_data_in[17],la_data_in[16],la_data_in[15],la_data_in[14],la_data_in[13],la_data_in[12],la_data_in[11],la_data_in[10],la_data_in[9],la_data_in[8],la_data_in[7],la_data_in[6],la_data_in[5],la_data_in[4],la_data_in[3],la_data_in[2],la_data_in[1],la_data_in[0]
+ la_data_out[127],la_data_out[126],la_data_out[125],la_data_out[124],la_data_out[123],la_data_out[122],la_data_out[121],la_data_out[120],la_data_out[119],la_data_out[118],la_data_out[117],la_data_out[116],la_data_out[115],la_data_out[114],la_data_out[113],la_data_out[112],la_data_out[111],la_data_out[110],la_data_out[109],la_data_out[108],la_data_out[107],la_data_out[106],la_data_out[105],la_data_out[104],la_data_out[103],la_data_out[102],la_data_out[101],la_data_out[100],la_data_out[99],la_data_out[98],la_data_out[97],la_data_out[96],la_data_out[95],la_data_out[94],la_data_out[93],la_data_out[92],la_data_out[91],la_data_out[90],la_data_out[89],la_data_out[88],la_data_out[87],la_data_out[86],la_data_out[85],la_data_out[84],la_data_out[83],la_data_out[82],la_data_out[81],la_data_out[80],la_data_out[79],la_data_out[78],la_data_out[77],la_data_out[76],la_data_out[75],la_data_out[74],la_data_out[73],la_data_out[72],la_data_out[71],la_data_out[70],la_data_out[69],la_data_out[68],la_data_out[67],la_data_out[66],la_data_out[65],la_data_out[64],la_data_out[63],la_data_out[62],la_data_out[61],la_data_out[60],la_data_out[59],la_data_out[58],la_data_out[57],la_data_out[56],la_data_out[55],la_data_out[54],la_data_out[53],la_data_out[52],la_data_out[51],la_data_out[50],la_data_out[49],la_data_out[48],la_data_out[47],la_data_out[46],la_data_out[45],la_data_out[44],la_data_out[43],la_data_out[42],la_data_out[41],la_data_out[40],la_data_out[39],la_data_out[38],la_data_out[37],la_data_out[36],la_data_out[35],la_data_out[34],la_data_out[33],la_data_out[32],la_data_out[31],la_data_out[30],la_data_out[29],la_data_out[28],la_data_out[27],la_data_out[26],la_data_out[25],la_data_out[24],la_data_out[23],la_data_out[22],la_data_out[21],la_data_out[20],la_data_out[19],la_data_out[18],la_data_out[17],la_data_out[16],la_data_out[15],la_data_out[14],la_data_out[13],la_data_out[12],la_data_out[11],la_data_out[10],la_data_out[9],la_data_out[8],la_data_out[7],la_data_out[6],la_data_out[5],la_data_out[4],la_data_out[3],la_data_out[2],la_data_out[1],la_data_out[0]
+ io_in[26],io_in[25],io_in[24],io_in[23],io_in[22],io_in[21],io_in[20],io_in[19],io_in[18],io_in[17],io_in[16],io_in[15],io_in[14],io_in[13],io_in[12],io_in[11],io_in[10],io_in[9],io_in[8],io_in[7],io_in[6],io_in[5],io_in[4],io_in[3],io_in[2],io_in[1],io_in[0]
+ io_in_3v3[26],io_in_3v3[25],io_in_3v3[24],io_in_3v3[23],io_in_3v3[22],io_in_3v3[21],io_in_3v3[20],io_in_3v3[19],io_in_3v3[18],io_in_3v3[17],io_in_3v3[16],io_in_3v3[15],io_in_3v3[14],io_in_3v3[13],io_in_3v3[12],io_in_3v3[11],io_in_3v3[10],io_in_3v3[9],io_in_3v3[8],io_in_3v3[7],io_in_3v3[6],io_in_3v3[5],io_in_3v3[4],io_in_3v3[3],io_in_3v3[2],io_in_3v3[1],io_in_3v3[0] user_clock2
+ io_out[26],io_out[25],io_out[24],io_out[23],io_out[22],io_out[21],io_out[20],io_out[19],io_out[18],io_out[17],io_out[16],io_out[15],io_out[14],io_out[13],io_out[12],io_out[11],io_out[10],io_out[9],io_out[8],io_out[7],io_out[6],io_out[5],io_out[4],io_out[3],io_out[2],io_out[1],io_out[0]
+ io_oeb[26],io_oeb[25],io_oeb[24],io_oeb[23],io_oeb[22],io_oeb[21],io_oeb[20],io_oeb[19],io_oeb[18],io_oeb[17],io_oeb[16],io_oeb[15],io_oeb[14],io_oeb[13],io_oeb[12],io_oeb[11],io_oeb[10],io_oeb[9],io_oeb[8],io_oeb[7],io_oeb[6],io_oeb[5],io_oeb[4],io_oeb[3],io_oeb[2],io_oeb[1],io_oeb[0]
+ gpio_analog[17],gpio_analog[16],gpio_analog[15],gpio_analog[14],gpio_analog[13],gpio_analog[12],gpio_analog[11],gpio_analog[10],gpio_analog[9],gpio_analog[8],gpio_analog[7],gpio_analog[6],gpio_analog[5],gpio_analog[4],gpio_analog[3],gpio_analog[2],gpio_analog[1],gpio_analog[0]
+ gpio_noesd[17],gpio_noesd[16],gpio_noesd[15],gpio_noesd[14],gpio_noesd[13],gpio_noesd[12],gpio_noesd[11],gpio_noesd[10],gpio_noesd[9],gpio_noesd[8],gpio_noesd[7],gpio_noesd[6],gpio_noesd[5],gpio_noesd[4],gpio_noesd[3],gpio_noesd[2],gpio_noesd[1],gpio_noesd[0]
+ io_analog[10],io_analog[9],io_analog[8],io_analog[7],io_analog[6],io_analog[5],io_analog[4],io_analog[3],io_analog[2],io_analog[1],io_analog[0] io_clamp_high[2],io_clamp_high[1],io_clamp_high[0] io_clamp_low[2],io_clamp_low[1],io_clamp_low[0]
+ user_irq[2],user_irq[1],user_irq[0]
+ la_oenb[127],la_oenb[126],la_oenb[125],la_oenb[124],la_oenb[123],la_oenb[122],la_oenb[121],la_oenb[120],la_oenb[119],la_oenb[118],la_oenb[117],la_oenb[116],la_oenb[115],la_oenb[114],la_oenb[113],la_oenb[112],la_oenb[111],la_oenb[110],la_oenb[109],la_oenb[108],la_oenb[107],la_oenb[106],la_oenb[105],la_oenb[104],la_oenb[103],la_oenb[102],la_oenb[101],la_oenb[100],la_oenb[99],la_oenb[98],la_oenb[97],la_oenb[96],la_oenb[95],la_oenb[94],la_oenb[93],la_oenb[92],la_oenb[91],la_oenb[90],la_oenb[89],la_oenb[88],la_oenb[87],la_oenb[86],la_oenb[85],la_oenb[84],la_oenb[83],la_oenb[82],la_oenb[81],la_oenb[80],la_oenb[79],la_oenb[78],la_oenb[77],la_oenb[76],la_oenb[75],la_oenb[74],la_oenb[73],la_oenb[72],la_oenb[71],la_oenb[70],la_oenb[69],la_oenb[68],la_oenb[67],la_oenb[66],la_oenb[65],la_oenb[64],la_oenb[63],la_oenb[62],la_oenb[61],la_oenb[60],la_oenb[59],la_oenb[58],la_oenb[57],la_oenb[56],la_oenb[55],la_oenb[54],la_oenb[53],la_oenb[52],la_oenb[51],la_oenb[50],la_oenb[49],la_oenb[48],la_oenb[47],la_oenb[46],la_oenb[45],la_oenb[44],la_oenb[43],la_oenb[42],la_oenb[41],la_oenb[40],la_oenb[39],la_oenb[38],la_oenb[37],la_oenb[36],la_oenb[35],la_oenb[34],la_oenb[33],la_oenb[32],la_oenb[31],la_oenb[30],la_oenb[29],la_oenb[28],la_oenb[27],la_oenb[26],la_oenb[25],la_oenb[24],la_oenb[23],la_oenb[22],la_oenb[21],la_oenb[20],la_oenb[19],la_oenb[18],la_oenb[17],la_oenb[16],la_oenb[15],la_oenb[14],la_oenb[13],la_oenb[12],la_oenb[11],la_oenb[10],la_oenb[9],la_oenb[8],la_oenb[7],la_oenb[6],la_oenb[5],la_oenb[4],la_oenb[3],la_oenb[2],la_oenb[1],la_oenb[0]
*.iopin vdda1
*.iopin vdda2
*.iopin vssa1
*.iopin vssa2
*.iopin vccd1
*.iopin vccd2
*.iopin vssd1
*.iopin vssd2
*.ipin wb_clk_i
*.ipin wb_rst_i
*.ipin wbs_stb_i
*.ipin wbs_cyc_i
*.ipin wbs_we_i
*.ipin wbs_sel_i[3],wbs_sel_i[2],wbs_sel_i[1],wbs_sel_i[0]
*.ipin
*+ wbs_dat_i[31],wbs_dat_i[30],wbs_dat_i[29],wbs_dat_i[28],wbs_dat_i[27],wbs_dat_i[26],wbs_dat_i[25],wbs_dat_i[24],wbs_dat_i[23],wbs_dat_i[22],wbs_dat_i[21],wbs_dat_i[20],wbs_dat_i[19],wbs_dat_i[18],wbs_dat_i[17],wbs_dat_i[16],wbs_dat_i[15],wbs_dat_i[14],wbs_dat_i[13],wbs_dat_i[12],wbs_dat_i[11],wbs_dat_i[10],wbs_dat_i[9],wbs_dat_i[8],wbs_dat_i[7],wbs_dat_i[6],wbs_dat_i[5],wbs_dat_i[4],wbs_dat_i[3],wbs_dat_i[2],wbs_dat_i[1],wbs_dat_i[0]
*.ipin
*+ wbs_adr_i[31],wbs_adr_i[30],wbs_adr_i[29],wbs_adr_i[28],wbs_adr_i[27],wbs_adr_i[26],wbs_adr_i[25],wbs_adr_i[24],wbs_adr_i[23],wbs_adr_i[22],wbs_adr_i[21],wbs_adr_i[20],wbs_adr_i[19],wbs_adr_i[18],wbs_adr_i[17],wbs_adr_i[16],wbs_adr_i[15],wbs_adr_i[14],wbs_adr_i[13],wbs_adr_i[12],wbs_adr_i[11],wbs_adr_i[10],wbs_adr_i[9],wbs_adr_i[8],wbs_adr_i[7],wbs_adr_i[6],wbs_adr_i[5],wbs_adr_i[4],wbs_adr_i[3],wbs_adr_i[2],wbs_adr_i[1],wbs_adr_i[0]
*.opin wbs_ack_o
*.opin
*+ wbs_dat_o[31],wbs_dat_o[30],wbs_dat_o[29],wbs_dat_o[28],wbs_dat_o[27],wbs_dat_o[26],wbs_dat_o[25],wbs_dat_o[24],wbs_dat_o[23],wbs_dat_o[22],wbs_dat_o[21],wbs_dat_o[20],wbs_dat_o[19],wbs_dat_o[18],wbs_dat_o[17],wbs_dat_o[16],wbs_dat_o[15],wbs_dat_o[14],wbs_dat_o[13],wbs_dat_o[12],wbs_dat_o[11],wbs_dat_o[10],wbs_dat_o[9],wbs_dat_o[8],wbs_dat_o[7],wbs_dat_o[6],wbs_dat_o[5],wbs_dat_o[4],wbs_dat_o[3],wbs_dat_o[2],wbs_dat_o[1],wbs_dat_o[0]
*.ipin
*+ la_data_in[127],la_data_in[126],la_data_in[125],la_data_in[124],la_data_in[123],la_data_in[122],la_data_in[121],la_data_in[120],la_data_in[119],la_data_in[118],la_data_in[117],la_data_in[116],la_data_in[115],la_data_in[114],la_data_in[113],la_data_in[112],la_data_in[111],la_data_in[110],la_data_in[109],la_data_in[108],la_data_in[107],la_data_in[106],la_data_in[105],la_data_in[104],la_data_in[103],la_data_in[102],la_data_in[101],la_data_in[100],la_data_in[99],la_data_in[98],la_data_in[97],la_data_in[96],la_data_in[95],la_data_in[94],la_data_in[93],la_data_in[92],la_data_in[91],la_data_in[90],la_data_in[89],la_data_in[88],la_data_in[87],la_data_in[86],la_data_in[85],la_data_in[84],la_data_in[83],la_data_in[82],la_data_in[81],la_data_in[80],la_data_in[79],la_data_in[78],la_data_in[77],la_data_in[76],la_data_in[75],la_data_in[74],la_data_in[73],la_data_in[72],la_data_in[71],la_data_in[70],la_data_in[69],la_data_in[68],la_data_in[67],la_data_in[66],la_data_in[65],la_data_in[64],la_data_in[63],la_data_in[62],la_data_in[61],la_data_in[60],la_data_in[59],la_data_in[58],la_data_in[57],la_data_in[56],la_data_in[55],la_data_in[54],la_data_in[53],la_data_in[52],la_data_in[51],la_data_in[50],la_data_in[49],la_data_in[48],la_data_in[47],la_data_in[46],la_data_in[45],la_data_in[44],la_data_in[43],la_data_in[42],la_data_in[41],la_data_in[40],la_data_in[39],la_data_in[38],la_data_in[37],la_data_in[36],la_data_in[35],la_data_in[34],la_data_in[33],la_data_in[32],la_data_in[31],la_data_in[30],la_data_in[29],la_data_in[28],la_data_in[27],la_data_in[26],la_data_in[25],la_data_in[24],la_data_in[23],la_data_in[22],la_data_in[21],la_data_in[20],la_data_in[19],la_data_in[18],la_data_in[17],la_data_in[16],la_data_in[15],la_data_in[14],la_data_in[13],la_data_in[12],la_data_in[11],la_data_in[10],la_data_in[9],la_data_in[8],la_data_in[7],la_data_in[6],la_data_in[5],la_data_in[4],la_data_in[3],la_data_in[2],la_data_in[1],la_data_in[0]
*.opin
*+ la_data_out[127],la_data_out[126],la_data_out[125],la_data_out[124],la_data_out[123],la_data_out[122],la_data_out[121],la_data_out[120],la_data_out[119],la_data_out[118],la_data_out[117],la_data_out[116],la_data_out[115],la_data_out[114],la_data_out[113],la_data_out[112],la_data_out[111],la_data_out[110],la_data_out[109],la_data_out[108],la_data_out[107],la_data_out[106],la_data_out[105],la_data_out[104],la_data_out[103],la_data_out[102],la_data_out[101],la_data_out[100],la_data_out[99],la_data_out[98],la_data_out[97],la_data_out[96],la_data_out[95],la_data_out[94],la_data_out[93],la_data_out[92],la_data_out[91],la_data_out[90],la_data_out[89],la_data_out[88],la_data_out[87],la_data_out[86],la_data_out[85],la_data_out[84],la_data_out[83],la_data_out[82],la_data_out[81],la_data_out[80],la_data_out[79],la_data_out[78],la_data_out[77],la_data_out[76],la_data_out[75],la_data_out[74],la_data_out[73],la_data_out[72],la_data_out[71],la_data_out[70],la_data_out[69],la_data_out[68],la_data_out[67],la_data_out[66],la_data_out[65],la_data_out[64],la_data_out[63],la_data_out[62],la_data_out[61],la_data_out[60],la_data_out[59],la_data_out[58],la_data_out[57],la_data_out[56],la_data_out[55],la_data_out[54],la_data_out[53],la_data_out[52],la_data_out[51],la_data_out[50],la_data_out[49],la_data_out[48],la_data_out[47],la_data_out[46],la_data_out[45],la_data_out[44],la_data_out[43],la_data_out[42],la_data_out[41],la_data_out[40],la_data_out[39],la_data_out[38],la_data_out[37],la_data_out[36],la_data_out[35],la_data_out[34],la_data_out[33],la_data_out[32],la_data_out[31],la_data_out[30],la_data_out[29],la_data_out[28],la_data_out[27],la_data_out[26],la_data_out[25],la_data_out[24],la_data_out[23],la_data_out[22],la_data_out[21],la_data_out[20],la_data_out[19],la_data_out[18],la_data_out[17],la_data_out[16],la_data_out[15],la_data_out[14],la_data_out[13],la_data_out[12],la_data_out[11],la_data_out[10],la_data_out[9],la_data_out[8],la_data_out[7],la_data_out[6],la_data_out[5],la_data_out[4],la_data_out[3],la_data_out[2],la_data_out[1],la_data_out[0]
*.ipin
*+ io_in[26],io_in[25],io_in[24],io_in[23],io_in[22],io_in[21],io_in[20],io_in[19],io_in[18],io_in[17],io_in[16],io_in[15],io_in[14],io_in[13],io_in[12],io_in[11],io_in[10],io_in[9],io_in[8],io_in[7],io_in[6],io_in[5],io_in[4],io_in[3],io_in[2],io_in[1],io_in[0]
*.ipin
*+ io_in_3v3[26],io_in_3v3[25],io_in_3v3[24],io_in_3v3[23],io_in_3v3[22],io_in_3v3[21],io_in_3v3[20],io_in_3v3[19],io_in_3v3[18],io_in_3v3[17],io_in_3v3[16],io_in_3v3[15],io_in_3v3[14],io_in_3v3[13],io_in_3v3[12],io_in_3v3[11],io_in_3v3[10],io_in_3v3[9],io_in_3v3[8],io_in_3v3[7],io_in_3v3[6],io_in_3v3[5],io_in_3v3[4],io_in_3v3[3],io_in_3v3[2],io_in_3v3[1],io_in_3v3[0]
*.ipin user_clock2
*.opin
*+ io_out[26],io_out[25],io_out[24],io_out[23],io_out[22],io_out[21],io_out[20],io_out[19],io_out[18],io_out[17],io_out[16],io_out[15],io_out[14],io_out[13],io_out[12],io_out[11],io_out[10],io_out[9],io_out[8],io_out[7],io_out[6],io_out[5],io_out[4],io_out[3],io_out[2],io_out[1],io_out[0]
*.opin
*+ io_oeb[26],io_oeb[25],io_oeb[24],io_oeb[23],io_oeb[22],io_oeb[21],io_oeb[20],io_oeb[19],io_oeb[18],io_oeb[17],io_oeb[16],io_oeb[15],io_oeb[14],io_oeb[13],io_oeb[12],io_oeb[11],io_oeb[10],io_oeb[9],io_oeb[8],io_oeb[7],io_oeb[6],io_oeb[5],io_oeb[4],io_oeb[3],io_oeb[2],io_oeb[1],io_oeb[0]
*.iopin
*+ gpio_analog[17],gpio_analog[16],gpio_analog[15],gpio_analog[14],gpio_analog[13],gpio_analog[12],gpio_analog[11],gpio_analog[10],gpio_analog[9],gpio_analog[8],gpio_analog[7],gpio_analog[6],gpio_analog[5],gpio_analog[4],gpio_analog[3],gpio_analog[2],gpio_analog[1],gpio_analog[0]
*.iopin
*+ gpio_noesd[17],gpio_noesd[16],gpio_noesd[15],gpio_noesd[14],gpio_noesd[13],gpio_noesd[12],gpio_noesd[11],gpio_noesd[10],gpio_noesd[9],gpio_noesd[8],gpio_noesd[7],gpio_noesd[6],gpio_noesd[5],gpio_noesd[4],gpio_noesd[3],gpio_noesd[2],gpio_noesd[1],gpio_noesd[0]
*.iopin
*+ io_analog[10],io_analog[9],io_analog[8],io_analog[7],io_analog[6],io_analog[5],io_analog[4],io_analog[3],io_analog[2],io_analog[1],io_analog[0]
*.iopin io_clamp_high[2],io_clamp_high[1],io_clamp_high[0]
*.iopin io_clamp_low[2],io_clamp_low[1],io_clamp_low[0]
*.opin user_irq[2],user_irq[1],user_irq[0]
*.ipin
*+ la_oenb[127],la_oenb[126],la_oenb[125],la_oenb[124],la_oenb[123],la_oenb[122],la_oenb[121],la_oenb[120],la_oenb[119],la_oenb[118],la_oenb[117],la_oenb[116],la_oenb[115],la_oenb[114],la_oenb[113],la_oenb[112],la_oenb[111],la_oenb[110],la_oenb[109],la_oenb[108],la_oenb[107],la_oenb[106],la_oenb[105],la_oenb[104],la_oenb[103],la_oenb[102],la_oenb[101],la_oenb[100],la_oenb[99],la_oenb[98],la_oenb[97],la_oenb[96],la_oenb[95],la_oenb[94],la_oenb[93],la_oenb[92],la_oenb[91],la_oenb[90],la_oenb[89],la_oenb[88],la_oenb[87],la_oenb[86],la_oenb[85],la_oenb[84],la_oenb[83],la_oenb[82],la_oenb[81],la_oenb[80],la_oenb[79],la_oenb[78],la_oenb[77],la_oenb[76],la_oenb[75],la_oenb[74],la_oenb[73],la_oenb[72],la_oenb[71],la_oenb[70],la_oenb[69],la_oenb[68],la_oenb[67],la_oenb[66],la_oenb[65],la_oenb[64],la_oenb[63],la_oenb[62],la_oenb[61],la_oenb[60],la_oenb[59],la_oenb[58],la_oenb[57],la_oenb[56],la_oenb[55],la_oenb[54],la_oenb[53],la_oenb[52],la_oenb[51],la_oenb[50],la_oenb[49],la_oenb[48],la_oenb[47],la_oenb[46],la_oenb[45],la_oenb[44],la_oenb[43],la_oenb[42],la_oenb[41],la_oenb[40],la_oenb[39],la_oenb[38],la_oenb[37],la_oenb[36],la_oenb[35],la_oenb[34],la_oenb[33],la_oenb[32],la_oenb[31],la_oenb[30],la_oenb[29],la_oenb[28],la_oenb[27],la_oenb[26],la_oenb[25],la_oenb[24],la_oenb[23],la_oenb[22],la_oenb[21],la_oenb[20],la_oenb[19],la_oenb[18],la_oenb[17],la_oenb[16],la_oenb[15],la_oenb[14],la_oenb[13],la_oenb[12],la_oenb[11],la_oenb[10],la_oenb[9],la_oenb[8],la_oenb[7],la_oenb[6],la_oenb[5],la_oenb[4],la_oenb[3],la_oenb[2],la_oenb[1],la_oenb[0]
x1 mod_clk io_analog[10] io_analog[9] mod_rst io_analog[8] io_analog[1] la_data_in[101]
+ la_data_in[100] la_data_in[99] la_data_in[63] la_data_in[62] la_data_in[65] la_data_in[64] io_out_7_buf[23]
+ io_analog[2] io_analog[0] io_analog[7] io_analog[3] io_out_26_buf[38] la_data_in[61] la_data_in[60] vccd1 vssd1
+ VDD VSS analog_top
x2 vccd1 vssd1 vssd1 io_out_7_buf[23] df_clk df_rst io_in_12_buf[0] io_in_11_buf[0] io_out[8]
+ io_out_13_buf[20] io_out[25] io_out[24] io_out[23] io_out[22] io_out[21] io_out[20] io_out[19] io_out[18] io_out[17]
+ io_out[16] io_out[15] io_out[14] digital_filter
x3[38] io_out_26_buf[38] vssd1 vssd1 vccd1 vccd1 io_out_26_buf[37] sky130_fd_sc_hd__clkbuf_4
x3[37] io_out_26_buf[37] vssd1 vssd1 vccd1 vccd1 io_out_26_buf[36] sky130_fd_sc_hd__clkbuf_4
x3[36] io_out_26_buf[36] vssd1 vssd1 vccd1 vccd1 io_out_26_buf[35] sky130_fd_sc_hd__clkbuf_4
x3[35] io_out_26_buf[35] vssd1 vssd1 vccd1 vccd1 io_out_26_buf[34] sky130_fd_sc_hd__clkbuf_4
x3[34] io_out_26_buf[34] vssd1 vssd1 vccd1 vccd1 io_out_26_buf[33] sky130_fd_sc_hd__clkbuf_4
x3[33] io_out_26_buf[33] vssd1 vssd1 vccd1 vccd1 io_out_26_buf[32] sky130_fd_sc_hd__clkbuf_4
x3[32] io_out_26_buf[32] vssd1 vssd1 vccd1 vccd1 io_out_26_buf[31] sky130_fd_sc_hd__clkbuf_4
x3[31] io_out_26_buf[31] vssd1 vssd1 vccd1 vccd1 io_out_26_buf[30] sky130_fd_sc_hd__clkbuf_4
x3[30] io_out_26_buf[30] vssd1 vssd1 vccd1 vccd1 io_out_26_buf[29] sky130_fd_sc_hd__clkbuf_4
x3[29] io_out_26_buf[29] vssd1 vssd1 vccd1 vccd1 io_out_26_buf[28] sky130_fd_sc_hd__clkbuf_4
x3[28] io_out_26_buf[28] vssd1 vssd1 vccd1 vccd1 io_out_26_buf[27] sky130_fd_sc_hd__clkbuf_4
x3[27] io_out_26_buf[27] vssd1 vssd1 vccd1 vccd1 io_out_26_buf[26] sky130_fd_sc_hd__clkbuf_4
x3[26] io_out_26_buf[26] vssd1 vssd1 vccd1 vccd1 io_out_26_buf[25] sky130_fd_sc_hd__clkbuf_4
x3[25] io_out_26_buf[25] vssd1 vssd1 vccd1 vccd1 io_out_26_buf[24] sky130_fd_sc_hd__clkbuf_4
x3[24] io_out_26_buf[24] vssd1 vssd1 vccd1 vccd1 io_out_26_buf[23] sky130_fd_sc_hd__clkbuf_4
x3[23] io_out_26_buf[23] vssd1 vssd1 vccd1 vccd1 io_out_26_buf[22] sky130_fd_sc_hd__clkbuf_4
x3[22] io_out_26_buf[22] vssd1 vssd1 vccd1 vccd1 io_out_26_buf[21] sky130_fd_sc_hd__clkbuf_4
x3[21] io_out_26_buf[21] vssd1 vssd1 vccd1 vccd1 io_out_26_buf[20] sky130_fd_sc_hd__clkbuf_4
x3[20] io_out_26_buf[20] vssd1 vssd1 vccd1 vccd1 io_out_26_buf[19] sky130_fd_sc_hd__clkbuf_4
x3[19] io_out_26_buf[19] vssd1 vssd1 vccd1 vccd1 io_out_26_buf[18] sky130_fd_sc_hd__clkbuf_4
x3[18] io_out_26_buf[18] vssd1 vssd1 vccd1 vccd1 io_out_26_buf[17] sky130_fd_sc_hd__clkbuf_4
x3[17] io_out_26_buf[17] vssd1 vssd1 vccd1 vccd1 io_out_26_buf[16] sky130_fd_sc_hd__clkbuf_4
x3[16] io_out_26_buf[16] vssd1 vssd1 vccd1 vccd1 io_out_26_buf[15] sky130_fd_sc_hd__clkbuf_4
x3[15] io_out_26_buf[15] vssd1 vssd1 vccd1 vccd1 io_out_26_buf[14] sky130_fd_sc_hd__clkbuf_4
x3[14] io_out_26_buf[14] vssd1 vssd1 vccd1 vccd1 io_out_26_buf[13] sky130_fd_sc_hd__clkbuf_4
x3[13] io_out_26_buf[13] vssd1 vssd1 vccd1 vccd1 io_out_26_buf[12] sky130_fd_sc_hd__clkbuf_4
x3[12] io_out_26_buf[12] vssd1 vssd1 vccd1 vccd1 io_out_26_buf[11] sky130_fd_sc_hd__clkbuf_4
x3[11] io_out_26_buf[11] vssd1 vssd1 vccd1 vccd1 io_out_26_buf[10] sky130_fd_sc_hd__clkbuf_4
x3[10] io_out_26_buf[10] vssd1 vssd1 vccd1 vccd1 io_out_26_buf[9] sky130_fd_sc_hd__clkbuf_4
x3[9] io_out_26_buf[9] vssd1 vssd1 vccd1 vccd1 io_out_26_buf[8] sky130_fd_sc_hd__clkbuf_4
x3[8] io_out_26_buf[8] vssd1 vssd1 vccd1 vccd1 io_out_26_buf[7] sky130_fd_sc_hd__clkbuf_4
x3[7] io_out_26_buf[7] vssd1 vssd1 vccd1 vccd1 io_out_26_buf[6] sky130_fd_sc_hd__clkbuf_4
x3[6] io_out_26_buf[6] vssd1 vssd1 vccd1 vccd1 io_out_26_buf[5] sky130_fd_sc_hd__clkbuf_4
x3[5] io_out_26_buf[5] vssd1 vssd1 vccd1 vccd1 io_out_26_buf[4] sky130_fd_sc_hd__clkbuf_4
x3[4] io_out_26_buf[4] vssd1 vssd1 vccd1 vccd1 io_out_26_buf[3] sky130_fd_sc_hd__clkbuf_4
x3[3] io_out_26_buf[3] vssd1 vssd1 vccd1 vccd1 io_out_26_buf[2] sky130_fd_sc_hd__clkbuf_4
x3[2] io_out_26_buf[2] vssd1 vssd1 vccd1 vccd1 io_out_26_buf[1] sky130_fd_sc_hd__clkbuf_4
x3[1] io_out_26_buf[1] vssd1 vssd1 vccd1 vccd1 io_out_26_buf[0] sky130_fd_sc_hd__clkbuf_4
x3[0] io_out_26_buf[0] vssd1 vssd1 vccd1 vccd1 io_out[26] sky130_fd_sc_hd__clkbuf_4
x1[23] io_out_7_buf[23] vssd1 vssd1 vccd1 vccd1 io_out_7_buf[22] sky130_fd_sc_hd__clkbuf_4
x1[22] io_out_7_buf[22] vssd1 vssd1 vccd1 vccd1 io_out_7_buf[21] sky130_fd_sc_hd__clkbuf_4
x1[21] io_out_7_buf[21] vssd1 vssd1 vccd1 vccd1 io_out_7_buf[20] sky130_fd_sc_hd__clkbuf_4
x1[20] io_out_7_buf[20] vssd1 vssd1 vccd1 vccd1 io_out_7_buf[19] sky130_fd_sc_hd__clkbuf_4
x1[19] io_out_7_buf[19] vssd1 vssd1 vccd1 vccd1 io_out_7_buf[18] sky130_fd_sc_hd__clkbuf_4
x1[18] io_out_7_buf[18] vssd1 vssd1 vccd1 vccd1 io_out_7_buf[17] sky130_fd_sc_hd__clkbuf_4
x1[17] io_out_7_buf[17] vssd1 vssd1 vccd1 vccd1 io_out_7_buf[16] sky130_fd_sc_hd__clkbuf_4
x1[16] io_out_7_buf[16] vssd1 vssd1 vccd1 vccd1 io_out_7_buf[15] sky130_fd_sc_hd__clkbuf_4
x1[15] io_out_7_buf[15] vssd1 vssd1 vccd1 vccd1 io_out_7_buf[14] sky130_fd_sc_hd__clkbuf_4
x1[14] io_out_7_buf[14] vssd1 vssd1 vccd1 vccd1 io_out_7_buf[13] sky130_fd_sc_hd__clkbuf_4
x1[13] io_out_7_buf[13] vssd1 vssd1 vccd1 vccd1 io_out_7_buf[12] sky130_fd_sc_hd__clkbuf_4
x1[12] io_out_7_buf[12] vssd1 vssd1 vccd1 vccd1 io_out_7_buf[11] sky130_fd_sc_hd__clkbuf_4
x1[11] io_out_7_buf[11] vssd1 vssd1 vccd1 vccd1 io_out_7_buf[10] sky130_fd_sc_hd__clkbuf_4
x1[10] io_out_7_buf[10] vssd1 vssd1 vccd1 vccd1 io_out_7_buf[9] sky130_fd_sc_hd__clkbuf_4
x1[9] io_out_7_buf[9] vssd1 vssd1 vccd1 vccd1 io_out_7_buf[8] sky130_fd_sc_hd__clkbuf_4
x1[8] io_out_7_buf[8] vssd1 vssd1 vccd1 vccd1 io_out_7_buf[7] sky130_fd_sc_hd__clkbuf_4
x1[7] io_out_7_buf[7] vssd1 vssd1 vccd1 vccd1 io_out_7_buf[6] sky130_fd_sc_hd__clkbuf_4
x1[6] io_out_7_buf[6] vssd1 vssd1 vccd1 vccd1 io_out_7_buf[5] sky130_fd_sc_hd__clkbuf_4
x1[5] io_out_7_buf[5] vssd1 vssd1 vccd1 vccd1 io_out_7_buf[4] sky130_fd_sc_hd__clkbuf_4
x1[4] io_out_7_buf[4] vssd1 vssd1 vccd1 vccd1 io_out_7_buf[3] sky130_fd_sc_hd__clkbuf_4
x1[3] io_out_7_buf[3] vssd1 vssd1 vccd1 vccd1 io_out_7_buf[2] sky130_fd_sc_hd__clkbuf_4
x1[2] io_out_7_buf[2] vssd1 vssd1 vccd1 vccd1 io_out_7_buf[1] sky130_fd_sc_hd__clkbuf_4
x1[1] io_out_7_buf[1] vssd1 vssd1 vccd1 vccd1 io_out_7_buf[0] sky130_fd_sc_hd__clkbuf_4
x1[0] io_out_7_buf[0] vssd1 vssd1 vccd1 vccd1 io_out[7] sky130_fd_sc_hd__clkbuf_4
x1[14] io_in[10] vssd1 vssd1 vccd1 vccd1 clk_net[14] sky130_fd_sc_hd__clkbuf_4
x1[13] clk_net[14] vssd1 vssd1 vccd1 vccd1 clk_net[13] sky130_fd_sc_hd__clkbuf_4
x1[12] clk_net[13] vssd1 vssd1 vccd1 vccd1 clk_net[12] sky130_fd_sc_hd__clkbuf_4
x1[11] clk_net[12] vssd1 vssd1 vccd1 vccd1 clk_net[11] sky130_fd_sc_hd__clkbuf_4
x1[10] clk_net[11] vssd1 vssd1 vccd1 vccd1 clk_net[10] sky130_fd_sc_hd__clkbuf_4
x1[9] clk_net[10] vssd1 vssd1 vccd1 vccd1 clk_net[9] sky130_fd_sc_hd__clkbuf_4
x1[8] clk_net[9] vssd1 vssd1 vccd1 vccd1 clk_net[8] sky130_fd_sc_hd__clkbuf_4
x1[7] clk_net[8] vssd1 vssd1 vccd1 vccd1 clk_net[7] sky130_fd_sc_hd__clkbuf_4
x1[6] clk_net[7] vssd1 vssd1 vccd1 vccd1 clk_net[6] sky130_fd_sc_hd__clkbuf_4
x1[5] clk_net[6] vssd1 vssd1 vccd1 vccd1 clk_net[5] sky130_fd_sc_hd__clkbuf_4
x1[4] clk_net[5] vssd1 vssd1 vccd1 vccd1 clk_net[4] sky130_fd_sc_hd__clkbuf_4
x1[3] clk_net[4] vssd1 vssd1 vccd1 vccd1 clk_net[3] sky130_fd_sc_hd__clkbuf_4
x1[2] clk_net[3] vssd1 vssd1 vccd1 vccd1 clk_net[2] sky130_fd_sc_hd__clkbuf_4
x1[1] clk_net[2] vssd1 vssd1 vccd1 vccd1 clk_net[1] sky130_fd_sc_hd__clkbuf_4
x1[0] clk_net[1] vssd1 vssd1 vccd1 vccd1 clk_net[0] sky130_fd_sc_hd__clkbuf_4
x4 clk_net[0] vssd1 vssd1 vccd1 vccd1 net1 sky130_fd_sc_hd__clkbuf_4
x3 clk_net[0] vssd1 vssd1 vccd1 vccd1 net2 sky130_fd_sc_hd__clkbuf_4
x5 net1 vssd1 vssd1 vccd1 vccd1 net3 sky130_fd_sc_hd__clkbuf_4
x6 net3 vssd1 vssd1 vccd1 vccd1 net4 sky130_fd_sc_hd__clkbuf_4
x7 net4 vssd1 vssd1 vccd1 vccd1 net5 sky130_fd_sc_hd__clkbuf_4
x8 net5 vssd1 vssd1 vccd1 vccd1 net6 sky130_fd_sc_hd__clkbuf_4
x9 net6 vssd1 vssd1 vccd1 vccd1 df_clk sky130_fd_sc_hd__clkbuf_4
x10 net2 vssd1 vssd1 vccd1 vccd1 net7 sky130_fd_sc_hd__clkbuf_4
x11 net7 vssd1 vssd1 vccd1 vccd1 net8 sky130_fd_sc_hd__clkbuf_4
x12 net8 vssd1 vssd1 vccd1 vccd1 net9 sky130_fd_sc_hd__clkbuf_4
x13 net9 vssd1 vssd1 vccd1 vccd1 net10 sky130_fd_sc_hd__clkbuf_4
x14 net10 vssd1 vssd1 vccd1 vccd1 mod_clk sky130_fd_sc_hd__clkbuf_4
x2[14] io_in[9] vssd1 vssd1 vccd1 vccd1 rst_net[14] sky130_fd_sc_hd__clkbuf_4
x2[13] rst_net[14] vssd1 vssd1 vccd1 vccd1 rst_net[13] sky130_fd_sc_hd__clkbuf_4
x2[12] rst_net[13] vssd1 vssd1 vccd1 vccd1 rst_net[12] sky130_fd_sc_hd__clkbuf_4
x2[11] rst_net[12] vssd1 vssd1 vccd1 vccd1 rst_net[11] sky130_fd_sc_hd__clkbuf_4
x2[10] rst_net[11] vssd1 vssd1 vccd1 vccd1 rst_net[10] sky130_fd_sc_hd__clkbuf_4
x2[9] rst_net[10] vssd1 vssd1 vccd1 vccd1 rst_net[9] sky130_fd_sc_hd__clkbuf_4
x2[8] rst_net[9] vssd1 vssd1 vccd1 vccd1 rst_net[8] sky130_fd_sc_hd__clkbuf_4
x2[7] rst_net[8] vssd1 vssd1 vccd1 vccd1 rst_net[7] sky130_fd_sc_hd__clkbuf_4
x2[6] rst_net[7] vssd1 vssd1 vccd1 vccd1 rst_net[6] sky130_fd_sc_hd__clkbuf_4
x2[5] rst_net[6] vssd1 vssd1 vccd1 vccd1 rst_net[5] sky130_fd_sc_hd__clkbuf_4
x2[4] rst_net[5] vssd1 vssd1 vccd1 vccd1 rst_net[4] sky130_fd_sc_hd__clkbuf_4
x2[3] rst_net[4] vssd1 vssd1 vccd1 vccd1 rst_net[3] sky130_fd_sc_hd__clkbuf_4
x2[2] rst_net[3] vssd1 vssd1 vccd1 vccd1 rst_net[2] sky130_fd_sc_hd__clkbuf_4
x2[1] rst_net[2] vssd1 vssd1 vccd1 vccd1 rst_net[1] sky130_fd_sc_hd__clkbuf_4
x2[0] rst_net[1] vssd1 vssd1 vccd1 vccd1 rst_net[0] sky130_fd_sc_hd__clkbuf_4
x15 rst_net[0] vssd1 vssd1 vccd1 vccd1 net11 sky130_fd_sc_hd__clkbuf_4
x16 rst_net[0] vssd1 vssd1 vccd1 vccd1 net12 sky130_fd_sc_hd__clkbuf_4
x17 net11 vssd1 vssd1 vccd1 vccd1 net13 sky130_fd_sc_hd__clkbuf_4
x18 net13 vssd1 vssd1 vccd1 vccd1 net14 sky130_fd_sc_hd__clkbuf_4
x19 net14 vssd1 vssd1 vccd1 vccd1 net15 sky130_fd_sc_hd__clkbuf_4
x20 net15 vssd1 vssd1 vccd1 vccd1 net16 sky130_fd_sc_hd__clkbuf_4
x21 net16 vssd1 vssd1 vccd1 vccd1 net17 sky130_fd_sc_hd__clkbuf_4
x22 net12 vssd1 vssd1 vccd1 vccd1 net18 sky130_fd_sc_hd__clkbuf_4
x23 net18 vssd1 vssd1 vccd1 vccd1 net19 sky130_fd_sc_hd__clkbuf_4
x24 net19 vssd1 vssd1 vccd1 vccd1 net20 sky130_fd_sc_hd__clkbuf_4
x25 net20 vssd1 vssd1 vccd1 vccd1 net21 sky130_fd_sc_hd__clkbuf_4
x26 net21 vssd1 vssd1 vccd1 vccd1 mod_rst sky130_fd_sc_hd__clkbuf_4
x27 net17 vssd1 vssd1 vccd1 vccd1 df_rst sky130_fd_sc_hd__clkbuf_4
XC1 vccd1 vssd1 sky130_fd_pr__cap_mim_m3_1 W=29.99 L=29.99 MF=96 m=96
x2[20] io_out_13_buf[20] vssd1 vssd1 vccd1 vccd1 io_out_13_buf[19] sky130_fd_sc_hd__clkbuf_4
x2[19] io_out_13_buf[19] vssd1 vssd1 vccd1 vccd1 io_out_13_buf[18] sky130_fd_sc_hd__clkbuf_4
x2[18] io_out_13_buf[18] vssd1 vssd1 vccd1 vccd1 io_out_13_buf[17] sky130_fd_sc_hd__clkbuf_4
x2[17] io_out_13_buf[17] vssd1 vssd1 vccd1 vccd1 io_out_13_buf[16] sky130_fd_sc_hd__clkbuf_4
x2[16] io_out_13_buf[16] vssd1 vssd1 vccd1 vccd1 io_out_13_buf[15] sky130_fd_sc_hd__clkbuf_4
x2[15] io_out_13_buf[15] vssd1 vssd1 vccd1 vccd1 io_out_13_buf[14] sky130_fd_sc_hd__clkbuf_4
x2[14] io_out_13_buf[14] vssd1 vssd1 vccd1 vccd1 io_out_13_buf[13] sky130_fd_sc_hd__clkbuf_4
x2[13] io_out_13_buf[13] vssd1 vssd1 vccd1 vccd1 io_out_13_buf[12] sky130_fd_sc_hd__clkbuf_4
x2[12] io_out_13_buf[12] vssd1 vssd1 vccd1 vccd1 io_out_13_buf[11] sky130_fd_sc_hd__clkbuf_4
x2[11] io_out_13_buf[11] vssd1 vssd1 vccd1 vccd1 io_out_13_buf[10] sky130_fd_sc_hd__clkbuf_4
x2[10] io_out_13_buf[10] vssd1 vssd1 vccd1 vccd1 io_out_13_buf[9] sky130_fd_sc_hd__clkbuf_4