* NGSPICE file created from user_analog_project_wrapper.ext - technology: sky130A

.subckt sky130_fd_sc_hd__clkbuf_4 A VGND VPWR X VNB VPB
X0 VPWR A a_27_47# VPB sky130_fd_pr__pfet_01v8_hvt ad=9.1e+11p pd=7.82e+06u as=2.65e+11p ps=2.53e+06u w=1e+06u l=150000u
X1 VGND a_27_47# X VNB sky130_fd_pr__nfet_01v8 ad=3.801e+11p pd=4.33e+06u as=2.352e+11p ps=2.8e+06u w=420000u l=150000u
X2 VGND a_27_47# X VNB sky130_fd_pr__nfet_01v8 ad=0p pd=0u as=0p ps=0u w=420000u l=150000u
X3 X a_27_47# VPWR VPB sky130_fd_pr__pfet_01v8_hvt ad=5.6e+11p pd=5.12e+06u as=0p ps=0u w=1e+06u l=150000u
X4 X a_27_47# VGND VNB sky130_fd_pr__nfet_01v8 ad=0p pd=0u as=0p ps=0u w=420000u l=150000u
X5 VGND A a_27_47# VNB sky130_fd_pr__nfet_01v8 ad=0p pd=0u as=1.113e+11p ps=1.37e+06u w=420000u l=150000u
X6 VPWR a_27_47# X VPB sky130_fd_pr__pfet_01v8_hvt ad=0p pd=0u as=0p ps=0u w=1e+06u l=150000u
X7 X a_27_47# VGND VNB sky130_fd_pr__nfet_01v8 ad=0p pd=0u as=0p ps=0u w=420000u l=150000u
X8 X a_27_47# VPWR VPB sky130_fd_pr__pfet_01v8_hvt ad=0p pd=0u as=0p ps=0u w=1e+06u l=150000u
X9 VPWR a_27_47# X VPB sky130_fd_pr__pfet_01v8_hvt ad=0p pd=0u as=0p ps=0u w=1e+06u l=150000u
.ends

.subckt sky130_fd_pr__cap_mim_m3_1_PXTAZD c1_n12524_n25042# m3_n12624_n25192#
X0 c1_n12524_n25042# m3_n12624_n25192# sky130_fd_pr__cap_mim_m3_1 l=2.999e+07u w=2.999e+07u
X1 c1_n12524_n25042# m3_n12624_n25192# sky130_fd_pr__cap_mim_m3_1 l=2.999e+07u w=2.999e+07u
X2 c1_n12524_n25042# m3_n12624_n25192# sky130_fd_pr__cap_mim_m3_1 l=2.999e+07u w=2.999e+07u
X3 c1_n12524_n25042# m3_n12624_n25192# sky130_fd_pr__cap_mim_m3_1 l=2.999e+07u w=2.999e+07u
X4 c1_n12524_n25042# m3_n12624_n25192# sky130_fd_pr__cap_mim_m3_1 l=2.999e+07u w=2.999e+07u
X5 c1_n12524_n25042# m3_n12624_n25192# sky130_fd_pr__cap_mim_m3_1 l=2.999e+07u w=2.999e+07u
X6 c1_n12524_n25042# m3_n12624_n25192# sky130_fd_pr__cap_mim_m3_1 l=2.999e+07u w=2.999e+07u
X7 c1_n12524_n25042# m3_n12624_n25192# sky130_fd_pr__cap_mim_m3_1 l=2.999e+07u w=2.999e+07u
X8 c1_n12524_n25042# m3_n12624_n25192# sky130_fd_pr__cap_mim_m3_1 l=2.999e+07u w=2.999e+07u
X9 c1_n12524_n25042# m3_n12624_n25192# sky130_fd_pr__cap_mim_m3_1 l=2.999e+07u w=2.999e+07u
X10 c1_n12524_n25042# m3_n12624_n25192# sky130_fd_pr__cap_mim_m3_1 l=2.999e+07u w=2.999e+07u
X11 c1_n12524_n25042# m3_n12624_n25192# sky130_fd_pr__cap_mim_m3_1 l=2.999e+07u w=2.999e+07u
X12 c1_n12524_n25042# m3_n12624_n25192# sky130_fd_pr__cap_mim_m3_1 l=2.999e+07u w=2.999e+07u
X13 c1_n12524_n25042# m3_n12624_n25192# sky130_fd_pr__cap_mim_m3_1 l=2.999e+07u w=2.999e+07u
X14 c1_n12524_n25042# m3_n12624_n25192# sky130_fd_pr__cap_mim_m3_1 l=2.999e+07u w=2.999e+07u
X15 c1_n12524_n25042# m3_n12624_n25192# sky130_fd_pr__cap_mim_m3_1 l=2.999e+07u w=2.999e+07u
X16 c1_n12524_n25042# m3_n12624_n25192# sky130_fd_pr__cap_mim_m3_1 l=2.999e+07u w=2.999e+07u
X17 c1_n12524_n25042# m3_n12624_n25192# sky130_fd_pr__cap_mim_m3_1 l=2.999e+07u w=2.999e+07u
X18 c1_n12524_n25042# m3_n12624_n25192# sky130_fd_pr__cap_mim_m3_1 l=2.999e+07u w=2.999e+07u
X19 c1_n12524_n25042# m3_n12624_n25192# sky130_fd_pr__cap_mim_m3_1 l=2.999e+07u w=2.999e+07u
X20 c1_n12524_n25042# m3_n12624_n25192# sky130_fd_pr__cap_mim_m3_1 l=2.999e+07u w=2.999e+07u
X21 c1_n12524_n25042# m3_n12624_n25192# sky130_fd_pr__cap_mim_m3_1 l=2.999e+07u w=2.999e+07u
X22 c1_n12524_n25042# m3_n12624_n25192# sky130_fd_pr__cap_mim_m3_1 l=2.999e+07u w=2.999e+07u
X23 c1_n12524_n25042# m3_n12624_n25192# sky130_fd_pr__cap_mim_m3_1 l=2.999e+07u w=2.999e+07u
X24 c1_n12524_n25042# m3_n12624_n25192# sky130_fd_pr__cap_mim_m3_1 l=2.999e+07u w=2.999e+07u
X25 c1_n12524_n25042# m3_n12624_n25192# sky130_fd_pr__cap_mim_m3_1 l=2.999e+07u w=2.999e+07u
X26 c1_n12524_n25042# m3_n12624_n25192# sky130_fd_pr__cap_mim_m3_1 l=2.999e+07u w=2.999e+07u
X27 c1_n12524_n25042# m3_n12624_n25192# sky130_fd_pr__cap_mim_m3_1 l=2.999e+07u w=2.999e+07u
X28 c1_n12524_n25042# m3_n12624_n25192# sky130_fd_pr__cap_mim_m3_1 l=2.999e+07u w=2.999e+07u
X29 c1_n12524_n25042# m3_n12624_n25192# sky130_fd_pr__cap_mim_m3_1 l=2.999e+07u w=2.999e+07u
X30 c1_n12524_n25042# m3_n12624_n25192# sky130_fd_pr__cap_mim_m3_1 l=2.999e+07u w=2.999e+07u
X31 c1_n12524_n25042# m3_n12624_n25192# sky130_fd_pr__cap_mim_m3_1 l=2.999e+07u w=2.999e+07u
.ends

.subckt sky130_fd_sc_hd__decap_6 VGND VPWR VNB VPB
X0 VPWR VGND VPWR VPB sky130_fd_pr__pfet_01v8_hvt ad=4.524e+11p pd=4.52e+06u as=0p ps=0u w=870000u l=1.97e+06u
X1 VGND VPWR VGND VNB sky130_fd_pr__nfet_01v8 ad=2.86e+11p pd=3.24e+06u as=0p ps=0u w=550000u l=1.97e+06u
.ends

.subckt sky130_fd_sc_hd__ha_2 A B VGND VPWR COUT SUM VNB VPB
X0 VPWR A a_342_199# VPB sky130_fd_pr__pfet_01v8_hvt ad=1.8556e+12p pd=1.392e+07u as=1.856e+11p ps=1.86e+06u w=640000u l=150000u
X1 a_766_47# B a_342_199# VNB sky130_fd_pr__nfet_01v8 ad=8.82e+10p pd=1.26e+06u as=1.092e+11p ps=1.36e+06u w=420000u l=150000u
X2 VGND B a_389_47# VNB sky130_fd_pr__nfet_01v8 ad=8.144e+11p pd=8.79e+06u as=2.226e+11p ps=2.74e+06u w=420000u l=150000u
X3 COUT a_342_199# VGND VNB sky130_fd_pr__nfet_01v8 ad=2.015e+11p pd=1.92e+06u as=0p ps=0u w=650000u l=150000u
X4 VGND A a_766_47# VNB sky130_fd_pr__nfet_01v8 ad=0p pd=0u as=0p ps=0u w=420000u l=150000u
X5 a_342_199# B VPWR VPB sky130_fd_pr__pfet_01v8_hvt ad=0p pd=0u as=0p ps=0u w=640000u l=150000u
X6 a_468_369# B a_79_21# VPB sky130_fd_pr__pfet_01v8_hvt ad=2.56e+11p pd=2.08e+06u as=1.728e+11p ps=1.82e+06u w=640000u l=150000u
X7 a_79_21# a_342_199# VPWR VPB sky130_fd_pr__pfet_01v8_hvt ad=0p pd=0u as=0p ps=0u w=640000u l=150000u
X8 a_389_47# a_342_199# a_79_21# VNB sky130_fd_pr__nfet_01v8 ad=0p pd=0u as=1.092e+11p ps=1.36e+06u w=420000u l=150000u
X9 a_389_47# A VGND VNB sky130_fd_pr__nfet_01v8 ad=0p pd=0u as=0p ps=0u w=420000u l=150000u
X10 COUT a_342_199# VPWR VPB sky130_fd_pr__pfet_01v8_hvt ad=3.1e+11p pd=2.62e+06u as=0p ps=0u w=1e+06u l=150000u
X11 VPWR a_342_199# COUT VPB sky130_fd_pr__pfet_01v8_hvt ad=0p pd=0u as=0p ps=0u w=1e+06u l=150000u
X12 VGND a_79_21# SUM VNB sky130_fd_pr__nfet_01v8 ad=0p pd=0u as=2.015e+11p ps=1.92e+06u w=650000u l=150000u
X13 VPWR a_79_21# SUM VPB sky130_fd_pr__pfet_01v8_hvt ad=0p pd=0u as=3.1e+11p ps=2.62e+06u w=1e+06u l=150000u
X14 VGND a_342_199# COUT VNB sky130_fd_pr__nfet_01v8 ad=0p pd=0u as=0p ps=0u w=650000u l=150000u
X15 SUM a_79_21# VPWR VPB sky130_fd_pr__pfet_01v8_hvt ad=0p pd=0u as=0p ps=0u w=1e+06u l=150000u
X16 VPWR A a_468_369# VPB sky130_fd_pr__pfet_01v8_hvt ad=0p pd=0u as=0p ps=0u w=640000u l=150000u
X17 SUM a_79_21# VGND VNB sky130_fd_pr__nfet_01v8 ad=0p pd=0u as=0p ps=0u w=650000u l=150000u
.ends

.subckt sky130_fd_sc_hd__clkinv_1 A VGND VPWR Y VNB VPB
X0 Y A VPWR VPB sky130_fd_pr__pfet_01v8_hvt ad=2.268e+11p pd=2.22e+06u as=4.536e+11p ps=4.44e+06u w=840000u l=150000u
X1 VGND A Y VNB sky130_fd_pr__nfet_01v8 ad=1.197e+11p pd=1.41e+06u as=1.092e+11p ps=1.36e+06u w=420000u l=150000u
X2 VPWR A Y VPB sky130_fd_pr__pfet_01v8_hvt ad=0p pd=0u as=0p ps=0u w=840000u l=150000u
.ends

.subckt sky130_fd_sc_hd__dfxtp_1 CLK D VGND VPWR Q VNB VPB
X0 Q a_1059_315# VGND VNB sky130_fd_pr__nfet_01v8 ad=1.69e+11p pd=1.82e+06u as=7.492e+11p ps=8.11e+06u w=650000u l=150000u
X1 a_891_413# a_193_47# a_634_159# VNB sky130_fd_pr__nfet_01v8 ad=1.368e+11p pd=1.48e+06u as=1.978e+11p ps=1.99e+06u w=360000u l=150000u
X2 a_561_413# a_27_47# a_466_413# VPB sky130_fd_pr__pfet_01v8_hvt ad=1.533e+11p pd=1.57e+06u as=1.365e+11p ps=1.49e+06u w=420000u l=150000u
X3 VPWR CLK a_27_47# VPB sky130_fd_pr__pfet_01v8_hvt ad=1.02105e+12p pd=9.61e+06u as=1.664e+11p ps=1.8e+06u w=640000u l=150000u
X4 Q a_1059_315# VPWR VPB sky130_fd_pr__pfet_01v8_hvt ad=2.6e+11p pd=2.52e+06u as=0p ps=0u w=1e+06u l=150000u
X5 a_381_47# D VPWR VPB sky130_fd_pr__pfet_01v8_hvt ad=1.155e+11p pd=1.39e+06u as=0p ps=0u w=420000u l=150000u
X6 VGND a_634_159# a_592_47# VNB sky130_fd_pr__nfet_01v8 ad=0p pd=0u as=1.392e+11p ps=1.53e+06u w=420000u l=150000u
X7 VPWR a_891_413# a_1059_315# VPB sky130_fd_pr__pfet_01v8_hvt ad=0p pd=0u as=2.7e+11p ps=2.54e+06u w=1e+06u l=150000u
X8 a_466_413# a_193_47# a_381_47# VPB sky130_fd_pr__pfet_01v8_hvt ad=0p pd=0u as=0p ps=0u w=420000u l=150000u
X9 VPWR a_634_159# a_561_413# VPB sky130_fd_pr__pfet_01v8_hvt ad=0p pd=0u as=0p ps=0u w=420000u l=150000u
X10 a_634_159# a_466_413# VGND VNB sky130_fd_pr__nfet_01v8 ad=0p pd=0u as=0p ps=0u w=640000u l=150000u
X11 a_634_159# a_466_413# VPWR VPB sky130_fd_pr__pfet_01v8_hvt ad=2.19e+11p pd=2.15e+06u as=0p ps=0u w=750000u l=150000u
X12 a_975_413# a_193_47# a_891_413# VPB sky130_fd_pr__pfet_01v8_hvt ad=1.764e+11p pd=1.68e+06u as=1.134e+11p ps=1.38e+06u w=420000u l=150000u
X13 VGND a_1059_315# a_1017_47# VNB sky130_fd_pr__nfet_01v8 ad=0p pd=0u as=1.32e+11p ps=1.49e+06u w=420000u l=150000u
X14 a_193_47# a_27_47# VGND VNB sky130_fd_pr__nfet_01v8 ad=1.092e+11p pd=1.36e+06u as=0p ps=0u w=420000u l=150000u
X15 a_891_413# a_27_47# a_634_159# VPB sky130_fd_pr__pfet_01v8_hvt ad=0p pd=0u as=0p ps=0u w=420000u l=150000u
X16 a_592_47# a_193_47# a_466_413# VNB sky130_fd_pr__nfet_01v8 ad=0p pd=0u as=1.242e+11p ps=1.41e+06u w=360000u l=150000u
X17 a_1017_47# a_27_47# a_891_413# VNB sky130_fd_pr__nfet_01v8 ad=0p pd=0u as=0p ps=0u w=360000u l=150000u
X18 VPWR a_1059_315# a_975_413# VPB sky130_fd_pr__pfet_01v8_hvt ad=0p pd=0u as=0p ps=0u w=420000u l=150000u
X19 a_466_413# a_27_47# a_381_47# VNB sky130_fd_pr__nfet_01v8 ad=0p pd=0u as=1.626e+11p ps=1.66e+06u w=360000u l=150000u
X20 a_193_47# a_27_47# VPWR VPB sky130_fd_pr__pfet_01v8_hvt ad=1.664e+11p pd=1.8e+06u as=0p ps=0u w=640000u l=150000u
X21 VGND a_891_413# a_1059_315# VNB sky130_fd_pr__nfet_01v8 ad=0p pd=0u as=1.69e+11p ps=1.82e+06u w=650000u l=150000u
X22 a_381_47# D VGND VNB sky130_fd_pr__nfet_01v8 ad=0p pd=0u as=0p ps=0u w=420000u l=150000u
X23 VGND CLK a_27_47# VNB sky130_fd_pr__nfet_01v8 ad=0p pd=0u as=1.092e+11p ps=1.36e+06u w=420000u l=150000u
.ends

.subckt sky130_fd_sc_hd__decap_3 VGND VPWR VNB VPB
X0 VPWR VGND VPWR VPB sky130_fd_pr__pfet_01v8_hvt ad=4.524e+11p pd=4.52e+06u as=0p ps=0u w=870000u l=590000u
X1 VGND VPWR VGND VNB sky130_fd_pr__nfet_01v8 ad=2.86e+11p pd=3.24e+06u as=0p ps=0u w=550000u l=590000u
.ends

.subckt sky130_fd_sc_hd__nand2_1 A B VGND VPWR Y VNB VPB
X0 VPWR A Y VPB sky130_fd_pr__pfet_01v8_hvt ad=5.2e+11p pd=5.04e+06u as=2.7e+11p ps=2.54e+06u w=1e+06u l=150000u
X1 Y A a_113_47# VNB sky130_fd_pr__nfet_01v8 ad=1.69e+11p pd=1.82e+06u as=1.755e+11p ps=1.84e+06u w=650000u l=150000u
X2 a_113_47# B VGND VNB sky130_fd_pr__nfet_01v8 ad=0p pd=0u as=1.69e+11p ps=1.82e+06u w=650000u l=150000u
X3 Y B VPWR VPB sky130_fd_pr__pfet_01v8_hvt ad=0p pd=0u as=0p ps=0u w=1e+06u l=150000u
.ends

.subckt sky130_fd_sc_hd__fa_2 A B CIN VGND VPWR COUT SUM VNB VPB
X0 a_1171_369# CIN a_1086_47# VPB sky130_fd_pr__pfet_01v8_hvt ad=2.0725e+11p pd=1.93e+06u as=1.76e+11p ps=1.83e+06u w=640000u l=150000u
X1 VGND CIN a_829_47# VNB sky130_fd_pr__nfet_01v8 ad=1.0855e+12p pd=1.175e+07u as=2.373e+11p ps=2.81e+06u w=420000u l=150000u
X2 VGND a_1086_47# SUM VNB sky130_fd_pr__nfet_01v8 ad=0p pd=0u as=2.535e+11p ps=2.08e+06u w=650000u l=150000u
X3 COUT a_80_21# VPWR VPB sky130_fd_pr__pfet_01v8_hvt ad=2.7e+11p pd=2.54e+06u as=1.6238e+12p ps=1.576e+07u w=1e+06u l=150000u
X4 a_829_369# A VPWR VPB sky130_fd_pr__pfet_01v8_hvt ad=3.616e+11p pd=3.69e+06u as=0p ps=0u w=640000u l=150000u
X5 VPWR CIN a_829_369# VPB sky130_fd_pr__pfet_01v8_hvt ad=0p pd=0u as=0p ps=0u w=640000u l=150000u
X6 a_473_371# B VPWR VPB sky130_fd_pr__pfet_01v8_hvt ad=3.339e+11p pd=3.58e+06u as=0p ps=0u w=630000u l=150000u
X7 a_294_47# A VGND VNB sky130_fd_pr__nfet_01v8 ad=1.365e+11p pd=1.49e+06u as=0p ps=0u w=420000u l=150000u
X8 VPWR A a_473_371# VPB sky130_fd_pr__pfet_01v8_hvt ad=0p pd=0u as=0p ps=0u w=630000u l=150000u
X9 a_829_369# B VPWR VPB sky130_fd_pr__pfet_01v8_hvt ad=0p pd=0u as=0p ps=0u w=640000u l=150000u
X10 a_829_47# B VGND VNB sky130_fd_pr__nfet_01v8 ad=0p pd=0u as=0p ps=0u w=420000u l=150000u
X11 a_829_47# A VGND VNB sky130_fd_pr__nfet_01v8 ad=0p pd=0u as=0p ps=0u w=420000u l=150000u
X12 a_473_371# CIN a_80_21# VPB sky130_fd_pr__pfet_01v8_hvt ad=0p pd=0u as=2.0475e+11p ps=1.91e+06u w=630000u l=150000u
X13 a_473_47# CIN a_80_21# VNB sky130_fd_pr__nfet_01v8 ad=2.226e+11p pd=2.74e+06u as=1.134e+11p ps=1.38e+06u w=420000u l=150000u
X14 a_473_47# B VGND VNB sky130_fd_pr__nfet_01v8 ad=0p pd=0u as=0p ps=0u w=420000u l=150000u
X15 VPWR a_1086_47# SUM VPB sky130_fd_pr__pfet_01v8_hvt ad=0p pd=0u as=2.7e+11p ps=2.54e+06u w=1e+06u l=150000u
X16 VGND a_80_21# COUT VNB sky130_fd_pr__nfet_01v8 ad=0p pd=0u as=1.755e+11p ps=1.84e+06u w=650000u l=150000u
X17 COUT a_80_21# VGND VNB sky130_fd_pr__nfet_01v8 ad=0p pd=0u as=0p ps=0u w=650000u l=150000u
X18 SUM a_1086_47# VPWR VPB sky130_fd_pr__pfet_01v8_hvt ad=0p pd=0u as=0p ps=0u w=1e+06u l=150000u
X19 a_80_21# B a_289_371# VPB sky130_fd_pr__pfet_01v8_hvt ad=0p pd=0u as=1.8585e+11p ps=1.85e+06u w=630000u l=150000u
X20 a_80_21# B a_294_47# VNB sky130_fd_pr__nfet_01v8 ad=0p pd=0u as=0p ps=0u w=420000u l=150000u
X21 VGND A a_473_47# VNB sky130_fd_pr__nfet_01v8 ad=0p pd=0u as=0p ps=0u w=420000u l=150000u
X22 SUM a_1086_47# VGND VNB sky130_fd_pr__nfet_01v8 ad=0p pd=0u as=0p ps=0u w=650000u l=150000u
X23 VPWR a_80_21# COUT VPB sky130_fd_pr__pfet_01v8_hvt ad=0p pd=0u as=0p ps=0u w=1e+06u l=150000u
X24 a_289_371# A VPWR VPB sky130_fd_pr__pfet_01v8_hvt ad=0p pd=0u as=0p ps=0u w=630000u l=150000u
X25 a_1194_47# CIN a_1086_47# VNB sky130_fd_pr__nfet_01v8 ad=8.82e+10p pd=1.26e+06u as=1.638e+11p ps=1.62e+06u w=420000u l=150000u
X26 a_1086_47# a_80_21# a_829_47# VNB sky130_fd_pr__nfet_01v8 ad=0p pd=0u as=0p ps=0u w=420000u l=150000u
X27 VGND A a_1266_47# VNB sky130_fd_pr__nfet_01v8 ad=0p pd=0u as=1.386e+11p ps=1.5e+06u w=420000u l=150000u
X28 a_1266_371# B a_1171_369# VPB sky130_fd_pr__pfet_01v8_hvt ad=2.457e+11p pd=2.04e+06u as=0p ps=0u w=630000u l=150000u
X29 VPWR A a_1266_371# VPB sky130_fd_pr__pfet_01v8_hvt ad=0p pd=0u as=0p ps=0u w=630000u l=150000u
X30 a_1266_47# B a_1194_47# VNB sky130_fd_pr__nfet_01v8 ad=0p pd=0u as=0p ps=0u w=420000u l=150000u
X31 a_1086_47# a_80_21# a_829_369# VPB sky130_fd_pr__pfet_01v8_hvt ad=0p pd=0u as=0p ps=0u w=640000u l=150000u
.ends

.subckt sky130_fd_sc_hd__decap_12 VGND VPWR VNB VPB
X0 VPWR VGND VPWR VPB sky130_fd_pr__pfet_01v8_hvt ad=4.524e+11p pd=4.52e+06u as=0p ps=0u w=870000u l=4.73e+06u
X1 VGND VPWR VGND VNB sky130_fd_pr__nfet_01v8 ad=2.86e+11p pd=3.24e+06u as=0p ps=0u w=550000u l=4.73e+06u
.ends

.subckt sky130_fd_sc_hd__clkinv_8 A VGND VPWR Y VNB VPB
X0 Y A VGND VNB sky130_fd_pr__nfet_01v8 ad=4.704e+11p pd=5.6e+06u as=5.754e+11p ps=6.94e+06u w=420000u l=150000u
X1 VPWR A Y VPB sky130_fd_pr__pfet_01v8_hvt ad=1.875e+12p pd=1.775e+07u as=1.62e+12p ps=1.524e+07u w=1e+06u l=150000u
X2 Y A VGND VNB sky130_fd_pr__nfet_01v8 ad=0p pd=0u as=0p ps=0u w=420000u l=150000u
X3 Y A VGND VNB sky130_fd_pr__nfet_01v8 ad=0p pd=0u as=0p ps=0u w=420000u l=150000u
X4 Y A VPWR VPB sky130_fd_pr__pfet_01v8_hvt ad=0p pd=0u as=0p ps=0u w=1e+06u l=150000u
X5 VPWR A Y VPB sky130_fd_pr__pfet_01v8_hvt ad=0p pd=0u as=0p ps=0u w=1e+06u l=150000u
X6 VPWR A Y VPB sky130_fd_pr__pfet_01v8_hvt ad=0p pd=0u as=0p ps=0u w=1e+06u l=150000u
X7 Y A VGND VNB sky130_fd_pr__nfet_01v8 ad=0p pd=0u as=0p ps=0u w=420000u l=150000u
X8 Y A VPWR VPB sky130_fd_pr__pfet_01v8_hvt ad=0p pd=0u as=0p ps=0u w=1e+06u l=150000u
X9 VGND A Y VNB sky130_fd_pr__nfet_01v8 ad=0p pd=0u as=0p ps=0u w=420000u l=150000u
X10 Y A VPWR VPB sky130_fd_pr__pfet_01v8_hvt ad=0p pd=0u as=0p ps=0u w=1e+06u l=150000u
X11 VPWR A Y VPB sky130_fd_pr__pfet_01v8_hvt ad=0p pd=0u as=0p ps=0u w=1e+06u l=150000u
X12 VGND A Y VNB sky130_fd_pr__nfet_01v8 ad=0p pd=0u as=0p ps=0u w=420000u l=150000u
X13 VPWR A Y VPB sky130_fd_pr__pfet_01v8_hvt ad=0p pd=0u as=0p ps=0u w=1e+06u l=150000u
X14 Y A VPWR VPB sky130_fd_pr__pfet_01v8_hvt ad=0p pd=0u as=0p ps=0u w=1e+06u l=150000u
X15 VGND A Y VNB sky130_fd_pr__nfet_01v8 ad=0p pd=0u as=0p ps=0u w=420000u l=150000u
X16 VPWR A Y VPB sky130_fd_pr__pfet_01v8_hvt ad=0p pd=0u as=0p ps=0u w=1e+06u l=150000u
X17 Y A VPWR VPB sky130_fd_pr__pfet_01v8_hvt ad=0p pd=0u as=0p ps=0u w=1e+06u l=150000u
X18 Y A VPWR VPB sky130_fd_pr__pfet_01v8_hvt ad=0p pd=0u as=0p ps=0u w=1e+06u l=150000u
X19 VGND A Y VNB sky130_fd_pr__nfet_01v8 ad=0p pd=0u as=0p ps=0u w=420000u l=150000u
.ends

.subckt sky130_fd_sc_hd__a22o_1 A1 A2 B1 B2 VGND VPWR X VNB VPB
X0 VPWR A2 a_109_297# VPB sky130_fd_pr__pfet_01v8_hvt ad=5.629e+11p pd=5.14e+06u as=5.9e+11p ps=5.18e+06u w=1e+06u l=150000u
X1 a_27_297# B1 a_109_47# VNB sky130_fd_pr__nfet_01v8 ad=3.38e+11p pd=3.64e+06u as=1.495e+11p ps=1.76e+06u w=650000u l=150000u
X2 VGND A2 a_373_47# VNB sky130_fd_pr__nfet_01v8 ad=3.705e+11p pd=3.74e+06u as=2.275e+11p ps=2e+06u w=650000u l=150000u
X3 X a_27_297# VPWR VPB sky130_fd_pr__pfet_01v8_hvt ad=2.6e+11p pd=2.52e+06u as=0p ps=0u w=1e+06u l=150000u
X4 a_27_297# B1 a_109_297# VPB sky130_fd_pr__pfet_01v8_hvt ad=5.1285e+11p pd=5.04e+06u as=0p ps=0u w=1e+06u l=150000u
X5 a_109_297# A1 VPWR VPB sky130_fd_pr__pfet_01v8_hvt ad=0p pd=0u as=0p ps=0u w=1e+06u l=150000u
X6 a_373_47# A1 a_27_297# VNB sky130_fd_pr__nfet_01v8 ad=0p pd=0u as=0p ps=0u w=650000u l=150000u
X7 X a_27_297# VGND VNB sky130_fd_pr__nfet_01v8 ad=1.69e+11p pd=1.82e+06u as=0p ps=0u w=650000u l=150000u
X8 a_109_297# B2 a_27_297# VPB sky130_fd_pr__pfet_01v8_hvt ad=0p pd=0u as=0p ps=0u w=1e+06u l=150000u
X9 a_109_47# B2 VGND VNB sky130_fd_pr__nfet_01v8 ad=0p pd=0u as=0p ps=0u w=650000u l=150000u
.ends

.subckt sky130_fd_sc_hd__decap_4 VGND VPWR VNB VPB
X0 VPWR VGND VPWR VPB sky130_fd_pr__pfet_01v8_hvt ad=4.524e+11p pd=4.52e+06u as=0p ps=0u w=870000u l=1.05e+06u
X1 VGND VPWR VGND VNB sky130_fd_pr__nfet_01v8 ad=2.86e+11p pd=3.24e+06u as=0p ps=0u w=550000u l=1.05e+06u
.ends

.subckt sky130_fd_sc_hd__o21a_1 A1 A2 B1 VGND VPWR X VNB VPB
X0 VPWR A1 a_382_297# VPB sky130_fd_pr__pfet_01v8_hvt ad=9.15e+11p pd=5.83e+06u as=3.05e+11p ps=2.61e+06u w=1e+06u l=150000u
X1 a_297_47# B1 a_79_21# VNB sky130_fd_pr__nfet_01v8 ad=3.705e+11p pd=3.74e+06u as=1.69e+11p ps=1.82e+06u w=650000u l=150000u
X2 a_297_47# A1 VGND VNB sky130_fd_pr__nfet_01v8 ad=0p pd=0u as=3.445e+11p ps=3.66e+06u w=650000u l=150000u
X3 VGND A2 a_297_47# VNB sky130_fd_pr__nfet_01v8 ad=0p pd=0u as=0p ps=0u w=650000u l=150000u
X4 VPWR a_79_21# X VPB sky130_fd_pr__pfet_01v8_hvt ad=0p pd=0u as=2.8e+11p ps=2.56e+06u w=1e+06u l=150000u
X5 a_79_21# B1 VPWR VPB sky130_fd_pr__pfet_01v8_hvt ad=3.9e+11p pd=2.78e+06u as=0p ps=0u w=1e+06u l=150000u
X6 a_382_297# A2 a_79_21# VPB sky130_fd_pr__pfet_01v8_hvt ad=0p pd=0u as=0p ps=0u w=1e+06u l=150000u
X7 VGND a_79_21# X VNB sky130_fd_pr__nfet_01v8 ad=0p pd=0u as=1.69e+11p ps=1.82e+06u w=650000u l=150000u
.ends

.subckt sky130_fd_sc_hd__nand4_1 A B C D VGND VPWR Y VNB VPB
X0 Y B VPWR VPB sky130_fd_pr__pfet_01v8_hvt ad=6e+11p pd=5.2e+06u as=8.3e+11p ps=7.66e+06u w=1e+06u l=150000u
X1 VPWR A Y VPB sky130_fd_pr__pfet_01v8_hvt ad=0p pd=0u as=0p ps=0u w=1e+06u l=150000u
X2 VPWR C Y VPB sky130_fd_pr__pfet_01v8_hvt ad=0p pd=0u as=0p ps=0u w=1e+06u l=150000u
X3 a_193_47# C a_109_47# VNB sky130_fd_pr__nfet_01v8 ad=1.755e+11p pd=1.84e+06u as=1.755e+11p ps=1.84e+06u w=650000u l=150000u
X4 Y A a_277_47# VNB sky130_fd_pr__nfet_01v8 ad=1.95e+11p pd=1.9e+06u as=2.145e+11p ps=1.96e+06u w=650000u l=150000u
X5 a_277_47# B a_193_47# VNB sky130_fd_pr__nfet_01v8 ad=0p pd=0u as=0p ps=0u w=650000u l=150000u
X6 Y D VPWR VPB sky130_fd_pr__pfet_01v8_hvt ad=0p pd=0u as=0p ps=0u w=1e+06u l=150000u
X7 a_109_47# D VGND VNB sky130_fd_pr__nfet_01v8 ad=0p pd=0u as=1.69e+11p ps=1.82e+06u w=650000u l=150000u
.ends

.subckt sky130_fd_sc_hd__nor2_1 A B VGND VPWR Y VNB VPB
X0 VPWR A a_109_297# VPB sky130_fd_pr__pfet_01v8_hvt ad=2.6e+11p pd=2.52e+06u as=2.1e+11p ps=2.42e+06u w=1e+06u l=150000u
X1 VGND A Y VNB sky130_fd_pr__nfet_01v8 ad=3.38e+11p pd=3.64e+06u as=1.755e+11p ps=1.84e+06u w=650000u l=150000u
X2 a_109_297# B Y VPB sky130_fd_pr__pfet_01v8_hvt ad=0p pd=0u as=2.6e+11p ps=2.52e+06u w=1e+06u l=150000u
X3 Y B VGND VNB sky130_fd_pr__nfet_01v8 ad=0p pd=0u as=0p ps=0u w=650000u l=150000u
.ends

.subckt sky130_fd_sc_hd__xnor2_1 A B VGND VPWR Y VNB VPB
X0 a_377_297# A VPWR VPB sky130_fd_pr__pfet_01v8_hvt ad=2.1e+11p pd=2.42e+06u as=1.39e+12p ps=8.78e+06u w=1e+06u l=150000u
X1 a_47_47# B VPWR VPB sky130_fd_pr__pfet_01v8_hvt ad=2.7e+11p pd=2.54e+06u as=0p ps=0u w=1e+06u l=150000u
X2 a_129_47# B a_47_47# VNB sky130_fd_pr__nfet_01v8 ad=1.365e+11p pd=1.72e+06u as=1.69e+11p ps=1.82e+06u w=650000u l=150000u
X3 a_285_47# B VGND VNB sky130_fd_pr__nfet_01v8 ad=3.445e+11p pd=3.66e+06u as=3.445e+11p ps=3.66e+06u w=650000u l=150000u
X4 Y a_47_47# a_285_47# VNB sky130_fd_pr__nfet_01v8 ad=1.95e+11p pd=1.9e+06u as=0p ps=0u w=650000u l=150000u
X5 VGND A a_129_47# VNB sky130_fd_pr__nfet_01v8 ad=0p pd=0u as=0p ps=0u w=650000u l=150000u
X6 VPWR A a_47_47# VPB sky130_fd_pr__pfet_01v8_hvt ad=0p pd=0u as=0p ps=0u w=1e+06u l=150000u
X7 VPWR a_47_47# Y VPB sky130_fd_pr__pfet_01v8_hvt ad=0p pd=0u as=3.3e+11p ps=2.66e+06u w=1e+06u l=150000u
X8 Y B a_377_297# VPB sky130_fd_pr__pfet_01v8_hvt ad=0p pd=0u as=0p ps=0u w=1e+06u l=150000u
X9 a_285_47# A VGND VNB sky130_fd_pr__nfet_01v8 ad=0p pd=0u as=0p ps=0u w=650000u l=150000u
.ends

.subckt sky130_fd_sc_hd__clkinv_4 A VGND VPWR Y VNB VPB
X0 Y A VPWR VPB sky130_fd_pr__pfet_01v8_hvt ad=8.4e+11p pd=7.68e+06u as=1.21e+12p ps=1.042e+07u w=1e+06u l=150000u
X1 VGND A Y VNB sky130_fd_pr__nfet_01v8 ad=4.221e+11p pd=4.53e+06u as=2.352e+11p ps=2.8e+06u w=420000u l=150000u
X2 VGND A Y VNB sky130_fd_pr__nfet_01v8 ad=0p pd=0u as=0p ps=0u w=420000u l=150000u
X3 VPWR A Y VPB sky130_fd_pr__pfet_01v8_hvt ad=0p pd=0u as=0p ps=0u w=1e+06u l=150000u
X4 VPWR A Y VPB sky130_fd_pr__pfet_01v8_hvt ad=0p pd=0u as=0p ps=0u w=1e+06u l=150000u
X5 Y A VGND VNB sky130_fd_pr__nfet_01v8 ad=0p pd=0u as=0p ps=0u w=420000u l=150000u
X6 Y A VPWR VPB sky130_fd_pr__pfet_01v8_hvt ad=0p pd=0u as=0p ps=0u w=1e+06u l=150000u
X7 Y A VGND VNB sky130_fd_pr__nfet_01v8 ad=0p pd=0u as=0p ps=0u w=420000u l=150000u
X8 Y A VPWR VPB sky130_fd_pr__pfet_01v8_hvt ad=0p pd=0u as=0p ps=0u w=1e+06u l=150000u
X9 VPWR A Y VPB sky130_fd_pr__pfet_01v8_hvt ad=0p pd=0u as=0p ps=0u w=1e+06u l=150000u
.ends

.subckt sky130_fd_sc_hd__sdlclkp_4 CLK GATE SCE VGND VPWR GCLK VNB VPB
X0 a_257_147# CLK VPWR VPB sky130_fd_pr__pfet_01v8_hvt ad=1.664e+11p pd=1.8e+06u as=2.0575e+12p ps=1.797e+07u w=640000u l=150000u
X1 a_109_369# SCE VPWR VPB sky130_fd_pr__pfet_01v8_hvt ad=1.344e+11p pd=1.7e+06u as=0p ps=0u w=640000u l=150000u
X2 a_465_315# a_287_413# VPWR VPB sky130_fd_pr__pfet_01v8_hvt ad=2.6e+11p pd=2.52e+06u as=0p ps=0u w=1e+06u l=150000u
X3 VPWR a_1045_47# GCLK VPB sky130_fd_pr__pfet_01v8_hvt ad=0p pd=0u as=5.4e+11p ps=5.08e+06u w=1e+06u l=150000u
X4 a_287_413# a_257_147# a_27_47# VNB sky130_fd_pr__nfet_01v8 ad=1.35e+11p pd=1.47e+06u as=2.454e+11p ps=2.87e+06u w=360000u l=150000u
X5 VPWR a_257_147# a_257_243# VPB sky130_fd_pr__pfet_01v8_hvt ad=0p pd=0u as=1.664e+11p ps=1.8e+06u w=640000u l=150000u
X6 GCLK a_1045_47# VPWR VPB sky130_fd_pr__pfet_01v8_hvt ad=0p pd=0u as=0p ps=0u w=1e+06u l=150000u
X7 VGND a_257_147# a_257_243# VNB sky130_fd_pr__nfet_01v8 ad=1.1293e+12p pd=1.079e+07u as=1.092e+11p ps=1.36e+06u w=420000u l=150000u
X8 VGND a_1045_47# GCLK VNB sky130_fd_pr__nfet_01v8 ad=0p pd=0u as=3.51e+11p ps=3.68e+06u w=650000u l=150000u
X9 VPWR a_465_315# a_383_413# VPB sky130_fd_pr__pfet_01v8_hvt ad=0p pd=0u as=1.848e+11p ps=1.72e+06u w=420000u l=150000u
X10 VPWR a_1045_47# GCLK VPB sky130_fd_pr__pfet_01v8_hvt ad=0p pd=0u as=0p ps=0u w=1e+06u l=150000u
X11 a_1127_47# a_465_315# a_1045_47# VNB sky130_fd_pr__nfet_01v8 ad=1.365e+11p pd=1.72e+06u as=1.69e+11p ps=1.82e+06u w=650000u l=150000u
X12 a_27_47# GATE VGND VNB sky130_fd_pr__nfet_01v8 ad=0p pd=0u as=0p ps=0u w=420000u l=150000u
X13 GCLK a_1045_47# VPWR VPB sky130_fd_pr__pfet_01v8_hvt ad=0p pd=0u as=0p ps=0u w=1e+06u l=150000u
X14 a_287_413# a_257_243# a_27_47# VPB sky130_fd_pr__pfet_01v8_hvt ad=1.386e+11p pd=1.5e+06u as=2.267e+11p ps=2.04e+06u w=420000u l=150000u
X15 a_383_413# a_257_147# a_287_413# VPB sky130_fd_pr__pfet_01v8_hvt ad=0p pd=0u as=0p ps=0u w=420000u l=150000u
X16 VGND CLK a_1127_47# VNB sky130_fd_pr__nfet_01v8 ad=0p pd=0u as=0p ps=0u w=650000u l=150000u
X17 a_257_147# CLK VGND VNB sky130_fd_pr__nfet_01v8 ad=1.092e+11p pd=1.36e+06u as=0p ps=0u w=420000u l=150000u
X18 GCLK a_1045_47# VGND VNB sky130_fd_pr__nfet_01v8 ad=0p pd=0u as=0p ps=0u w=650000u l=150000u
X19 GCLK a_1045_47# VGND VNB sky130_fd_pr__nfet_01v8 ad=0p pd=0u as=0p ps=0u w=650000u l=150000u
X20 a_27_47# GATE a_109_369# VPB sky130_fd_pr__pfet_01v8_hvt ad=0p pd=0u as=0p ps=0u w=640000u l=150000u
X21 VPWR CLK a_1045_47# VPB sky130_fd_pr__pfet_01v8_hvt ad=0p pd=0u as=2.7e+11p ps=2.54e+06u w=1e+06u l=150000u
X22 a_1045_47# a_465_315# VPWR VPB sky130_fd_pr__pfet_01v8_hvt ad=0p pd=0u as=0p ps=0u w=1e+06u l=150000u
X23 a_395_47# a_257_243# a_287_413# VNB sky130_fd_pr__nfet_01v8 ad=1.806e+11p pd=1.76e+06u as=0p ps=0u w=360000u l=150000u
X24 VGND a_1045_47# GCLK VNB sky130_fd_pr__nfet_01v8 ad=0p pd=0u as=0p ps=0u w=650000u l=150000u
X25 VGND a_465_315# a_395_47# VNB sky130_fd_pr__nfet_01v8 ad=0p pd=0u as=0p ps=0u w=420000u l=150000u
X26 VGND SCE a_27_47# VNB sky130_fd_pr__nfet_01v8 ad=0p pd=0u as=0p ps=0u w=420000u l=150000u
X27 a_465_315# a_287_413# VGND VNB sky130_fd_pr__nfet_01v8 ad=1.69e+11p pd=1.82e+06u as=0p ps=0u w=650000u l=150000u
.ends

.subckt sky130_fd_sc_hd__clkinv_2 A VGND VPWR Y VNB VPB
X0 Y A VGND VNB sky130_fd_pr__nfet_01v8 ad=1.176e+11p pd=1.4e+06u as=2.205e+11p ps=2.73e+06u w=420000u l=150000u
X1 Y A VPWR VPB sky130_fd_pr__pfet_01v8_hvt ad=5.45e+11p pd=5.09e+06u as=5.45e+11p ps=5.09e+06u w=1e+06u l=150000u
X2 VPWR A Y VPB sky130_fd_pr__pfet_01v8_hvt ad=0p pd=0u as=0p ps=0u w=1e+06u l=150000u
X3 VGND A Y VNB sky130_fd_pr__nfet_01v8 ad=0p pd=0u as=0p ps=0u w=420000u l=150000u
X4 VPWR A Y VPB sky130_fd_pr__pfet_01v8_hvt ad=0p pd=0u as=0p ps=0u w=1e+06u l=150000u
.ends

.subckt sky130_fd_sc_hd__o21ai_1 A1 A2 B1 VGND VPWR Y VNB VPB
X0 Y A2 a_109_297# VPB sky130_fd_pr__pfet_01v8_hvt ad=3.48e+11p pd=2.78e+06u as=2.1e+11p ps=2.42e+06u w=1e+06u l=150000u
X1 VPWR B1 Y VPB sky130_fd_pr__pfet_01v8_hvt ad=4.42e+11p pd=4.44e+06u as=0p ps=0u w=700000u l=150000u
X2 a_27_47# A2 VGND VNB sky130_fd_pr__nfet_01v8 ad=3.445e+11p pd=3.66e+06u as=2.145e+11p ps=1.96e+06u w=650000u l=150000u
X3 Y B1 a_27_47# VNB sky130_fd_pr__nfet_01v8 ad=1.69e+11p pd=1.82e+06u as=0p ps=0u w=650000u l=150000u
X4 a_109_297# A1 VPWR VPB sky130_fd_pr__pfet_01v8_hvt ad=0p pd=0u as=0p ps=0u w=1e+06u l=150000u
X5 VGND A1 a_27_47# VNB sky130_fd_pr__nfet_01v8 ad=0p pd=0u as=0p ps=0u w=650000u l=150000u
.ends

.subckt sky130_fd_sc_hd__decap_8 VGND VPWR VNB VPB
X0 VPWR VGND VPWR VPB sky130_fd_pr__pfet_01v8_hvt ad=4.524e+11p pd=4.52e+06u as=0p ps=0u w=870000u l=2.89e+06u
X1 VGND VPWR VGND VNB sky130_fd_pr__nfet_01v8 ad=2.86e+11p pd=3.24e+06u as=0p ps=0u w=550000u l=2.89e+06u
.ends

.subckt sky130_fd_sc_hd__nand3_1 A B C VGND VPWR Y VNB VPB
X0 VPWR B Y VPB sky130_fd_pr__pfet_01v8_hvt ad=5.9e+11p pd=5.18e+06u as=5.3e+11p ps=5.06e+06u w=1e+06u l=150000u
X1 Y A VPWR VPB sky130_fd_pr__pfet_01v8_hvt ad=0p pd=0u as=0p ps=0u w=1e+06u l=150000u
X2 a_193_47# B a_109_47# VNB sky130_fd_pr__nfet_01v8 ad=2.145e+11p pd=1.96e+06u as=1.755e+11p ps=1.84e+06u w=650000u l=150000u
X3 Y A a_193_47# VNB sky130_fd_pr__nfet_01v8 ad=1.69e+11p pd=1.82e+06u as=0p ps=0u w=650000u l=150000u
X4 Y C VPWR VPB sky130_fd_pr__pfet_01v8_hvt ad=0p pd=0u as=0p ps=0u w=1e+06u l=150000u
X5 a_109_47# C VGND VNB sky130_fd_pr__nfet_01v8 ad=0p pd=0u as=1.69e+11p ps=1.82e+06u w=650000u l=150000u
.ends

.subckt sky130_fd_sc_hd__and2_0 A B VGND VPWR X VNB VPB
X0 VPWR B a_40_47# VPB sky130_fd_pr__pfet_01v8_hvt ad=4.795e+11p pd=3.89e+06u as=1.218e+11p ps=1.42e+06u w=420000u l=150000u
X1 X a_40_47# VPWR VPB sky130_fd_pr__pfet_01v8_hvt ad=1.696e+11p pd=1.81e+06u as=0p ps=0u w=640000u l=150000u
X2 VGND B a_123_47# VNB sky130_fd_pr__nfet_01v8 ad=1.932e+11p pd=1.76e+06u as=8.82e+10p ps=1.26e+06u w=420000u l=150000u
X3 X a_40_47# VGND VNB sky130_fd_pr__nfet_01v8 ad=1.113e+11p pd=1.37e+06u as=0p ps=0u w=420000u l=150000u
X4 a_123_47# A a_40_47# VNB sky130_fd_pr__nfet_01v8 ad=0p pd=0u as=1.113e+11p ps=1.37e+06u w=420000u l=150000u
X5 a_40_47# A VPWR VPB sky130_fd_pr__pfet_01v8_hvt ad=0p pd=0u as=0p ps=0u w=420000u l=150000u
.ends

.subckt sky130_fd_sc_hd__a21oi_1 A1 A2 B1 VGND VPWR Y VNB VPB
X0 a_199_47# A1 Y VNB sky130_fd_pr__nfet_01v8 ad=1.9175e+11p pd=1.89e+06u as=1.82e+11p ps=1.86e+06u w=650000u l=150000u
X1 a_113_297# A2 VPWR VPB sky130_fd_pr__pfet_01v8_hvt ad=5.45e+11p pd=5.09e+06u as=2.95e+11p ps=2.59e+06u w=1e+06u l=150000u
X2 Y B1 VGND VNB sky130_fd_pr__nfet_01v8 ad=0p pd=0u as=3.445e+11p ps=3.66e+06u w=650000u l=150000u
X3 VPWR A1 a_113_297# VPB sky130_fd_pr__pfet_01v8_hvt ad=0p pd=0u as=0p ps=0u w=1e+06u l=150000u
X4 a_113_297# B1 Y VPB sky130_fd_pr__pfet_01v8_hvt ad=0p pd=0u as=2.65e+11p ps=2.53e+06u w=1e+06u l=150000u
X5 VGND A2 a_199_47# VNB sky130_fd_pr__nfet_01v8 ad=0p pd=0u as=0p ps=0u w=650000u l=150000u
.ends

.subckt sky130_fd_sc_hd__conb_1 VGND VNB VPB VPWR HI LO
R0 HI VPWR sky130_fd_pr__res_generic_po w=480000u l=45000u
R1 VGND LO sky130_fd_pr__res_generic_po w=480000u l=45000u
.ends

.subckt sky130_fd_sc_hd__nor3_1 A B C VGND VPWR Y VNB VPB
X0 VPWR A a_193_297# VPB sky130_fd_pr__pfet_01v8_hvt ad=2.6e+11p pd=2.52e+06u as=2.7e+11p ps=2.54e+06u w=1e+06u l=150000u
X1 a_193_297# B a_109_297# VPB sky130_fd_pr__pfet_01v8_hvt ad=0p pd=0u as=2.7e+11p ps=2.54e+06u w=1e+06u l=150000u
X2 Y B VGND VNB sky130_fd_pr__nfet_01v8 ad=3.445e+11p pd=3.66e+06u as=3.445e+11p ps=3.66e+06u w=650000u l=150000u
X3 VGND A Y VNB sky130_fd_pr__nfet_01v8 ad=0p pd=0u as=0p ps=0u w=650000u l=150000u
X4 a_109_297# C Y VPB sky130_fd_pr__pfet_01v8_hvt ad=0p pd=0u as=2.6e+11p ps=2.52e+06u w=1e+06u l=150000u
X5 VGND C Y VNB sky130_fd_pr__nfet_01v8 ad=0p pd=0u as=0p ps=0u w=650000u l=150000u
.ends

.subckt sky130_fd_sc_hd__xor2_1 A B VGND VPWR X VNB VPB
X0 X a_35_297# a_285_297# VPB sky130_fd_pr__pfet_01v8_hvt ad=3e+11p pd=2.6e+06u as=5.3e+11p ps=5.06e+06u w=1e+06u l=150000u