* NGSPICE file created from ota_w_test_flat.ext - technology: sky130A

.subckt ota_w_test_flat ip in p1 p1_b p2 p2_b op on i_bias cm bias_a bias_b bias_c
+ bias_d cmc VDD VSS
X0 cm p2 sc_cmfb_0/transmission_gate_4/out VSS sky130_fd_pr__nfet_01v8 ad=1.1958e+13p pd=1.0498e+08u as=1.8668e+12p ps=1.862e+07u w=520000u l=150000u
X1 bias_d a_n1110_n5852# a_n1110_n5852# VSS sky130_fd_pr__nfet_01v8 ad=1.4616e+13p pd=1.2168e+08u as=1.1368e+13p ps=9.464e+07u w=1.4e+06u l=600000u
X2 sc_cmfb_0/transmission_gate_4/out p2 cm VSS sky130_fd_pr__nfet_01v8 ad=0p pd=0u as=0p ps=0u w=520000u l=150000u
X3 bias_a p1_b sc_cmfb_0/transmission_gate_8/in VDD sky130_fd_pr__pfet_01v8 ad=4.488e+12p pd=3.38e+07u as=4.8824e+12p ps=3.71e+07u w=1.36e+06u l=150000u
X4 cm p2 sc_cmfb_0/transmission_gate_4/out VSS sky130_fd_pr__nfet_01v8 ad=0p pd=0u as=0p ps=0u w=520000u l=150000u
X5 a_12106_n11502# cm VSS VSS sky130_fd_pr__nfet_01v8 ad=8.12e+11p pd=6.76e+06u as=8.323e+13p ps=6.929e+08u w=1.4e+06u l=600000u
X6 op p2_b sc_cmfb_0/transmission_gate_6/in VDD sky130_fd_pr__pfet_01v8 ad=1.01488e+13p pd=8.096e+07u as=4.8824e+12p ps=3.71e+07u w=1.36e+06u l=150000u
X7 sc_cmfb_0/transmission_gate_5/out p2 bias_a VSS sky130_fd_pr__nfet_01v8 ad=1.8668e+12p pd=1.862e+07u as=8.212e+12p ps=7.108e+07u w=520000u l=150000u
X8 a_n5928_n13620# bias_c op VDD sky130_fd_pr__pfet_01v8 ad=1.0556e+13p pd=8.788e+07u as=0p ps=0u w=1.4e+06u l=600000u
X9 a_12398_n9962# cm cm VSS sky130_fd_pr__nfet_01v8 ad=8.12e+11p pd=6.76e+06u as=0p ps=0u w=1.4e+06u l=600000u
X10 VDD VDD VDD VDD sky130_fd_pr__pfet_01v8 ad=2.3954e+13p pd=1.9942e+08u as=0p ps=0u w=1.4e+06u l=600000u
X11 a_n5928_n12940# bias_b VDD VDD sky130_fd_pr__pfet_01v8_lvt ad=1.0556e+13p pd=8.788e+07u as=0p ps=0u w=1.4e+06u l=600000u
X12 sc_cmfb_0/transmission_gate_4/out p1_b op VDD sky130_fd_pr__pfet_01v8 ad=4.8824e+12p pd=3.71e+07u as=0p ps=0u w=1.36e+06u l=150000u
X13 a_n1651_n13400# bias_a VSS VSS sky130_fd_pr__nfet_01v8 ad=1.624e+13p pd=1.352e+08u as=0p ps=0u w=1.4e+06u l=600000u
X14 a_n1651_n13400# bias_d on VSS sky130_fd_pr__nfet_01v8 ad=0p pd=0u as=1.09496e+13p ps=9.46e+07u w=1.4e+06u l=600000u
X15 op p2 sc_cmfb_0/transmission_gate_6/in VSS sky130_fd_pr__nfet_01v8 ad=1.09496e+13p pd=9.46e+07u as=1.8668e+12p ps=1.862e+07u w=520000u l=150000u
X16 VDD VDD a_n5928_n13620# VDD sky130_fd_pr__pfet_01v8 ad=0p pd=0u as=0p ps=0u w=1.4e+06u l=600000u
X17 bias_d bias_d bias_d VSS sky130_fd_pr__nfet_01v8 ad=0p pd=0u as=0p ps=0u w=1.4e+06u l=600000u
X18 a_n5928_n12940# ip a_n5580_n13620# VSS sky130_fd_pr__nfet_01v8_lvt ad=3.48e+12p pd=2.98e+07u as=4.7212e+13p ps=3.9404e+08u w=1.2e+06u l=200000u
X19 cm p2 sc_cmfb_0/transmission_gate_4/out VSS sky130_fd_pr__nfet_01v8 ad=0p pd=0u as=0p ps=0u w=520000u l=150000u
X20 a_n5580_n13620# bias_a VSS VSS sky130_fd_pr__nfet_01v8 ad=0p pd=0u as=0p ps=0u w=1.4e+06u l=600000u
X21 a_n2185_n13400# bias_d bias_a VSS sky130_fd_pr__nfet_01v8 ad=1.218e+13p pd=1.014e+08u as=0p ps=0u w=1.4e+06u l=600000u
X22 a_n5580_n13620# in a_n5928_n13620# VSS sky130_fd_pr__nfet_01v8_lvt ad=0p pd=0u as=3.48e+12p ps=2.98e+07u w=1.2e+06u l=200000u
X23 sc_cmfb_0/transmission_gate_4/out p2 cm VSS sky130_fd_pr__nfet_01v8 ad=0p pd=0u as=0p ps=0u w=520000u l=150000u
X24 a_n5580_n13620# bias_a VSS VSS sky130_fd_pr__nfet_01v8 ad=0p pd=0u as=0p ps=0u w=1.4e+06u l=600000u
X25 a_n5580_n13620# a_n5580_n13620# a_n5580_n13620# VSS sky130_fd_pr__nfet_01v8 ad=0p pd=0u as=0p ps=0u w=1.4e+06u l=600000u
X26 VSS VSS a_n2185_n13400# VSS sky130_fd_pr__nfet_01v8 ad=0p pd=0u as=0p ps=0u w=1.4e+06u l=600000u
X27 a_n6314_n4140# bias_b VDD VDD sky130_fd_pr__pfet_01v8_lvt ad=4.06e+12p pd=3.38e+07u as=0p ps=0u w=1.4e+06u l=600000u
X28 sc_cmfb_0/transmission_gate_7/in p1_b cm VDD sky130_fd_pr__pfet_01v8 ad=4.8824e+12p pd=3.71e+07u as=1.06e+13p ps=8.112e+07u w=1.36e+06u l=150000u
X29 op VSS VSS VSS sky130_fd_pr__nfet_01v8 ad=0p pd=0u as=0p ps=0u w=1.4e+06u l=600000u
X30 VSS bias_a a_n5580_n13620# VSS sky130_fd_pr__nfet_01v8 ad=0p pd=0u as=0p ps=0u w=1.4e+06u l=600000u
X31 VSS cmc a_n5580_n13620# VSS sky130_fd_pr__nfet_01v8 ad=0p pd=0u as=0p ps=0u w=1.4e+06u l=600000u
X32 VSS bias_a a_n1651_n11400# VSS sky130_fd_pr__nfet_01v8 ad=0p pd=0u as=1.5834e+13p ps=1.3182e+08u w=1.4e+06u l=600000u
X33 sc_cmfb_0/transmission_gate_8/in p1 bias_a VSS sky130_fd_pr__nfet_01v8 ad=1.8668e+12p pd=1.862e+07u as=0p ps=0u w=520000u l=150000u
X34 c1_12802_1831# m3_12702_1731# sky130_fd_pr__cap_mim_m3_1 l=4.8e+06u w=4.8e+06u
X35 on p1_b sc_cmfb_0/transmission_gate_3/out VDD sky130_fd_pr__pfet_01v8 ad=1.01488e+13p pd=8.096e+07u as=4.8824e+12p ps=3.71e+07u w=1.36e+06u l=150000u
X36 bias_b bias_b bias_c VSS sky130_fd_pr__nfet_01v8_lvt ad=1.624e+13p pd=1.352e+08u as=2.1112e+13p ps=1.7576e+08u w=1.4e+06u l=600000u
X37 a_n1651_n11400# bias_d op VSS sky130_fd_pr__nfet_01v8 ad=0p pd=0u as=0p ps=0u w=1.4e+06u l=600000u
X38 a_n6314_n5010# bias_b VDD VDD sky130_fd_pr__pfet_01v8_lvt ad=4.872e+12p pd=4.056e+07u as=0p ps=0u w=1.4e+06u l=600000u
X39 op p1 sc_cmfb_0/transmission_gate_4/out VSS sky130_fd_pr__nfet_01v8 ad=0p pd=0u as=0p ps=0u w=520000u l=150000u
X40 a_n5580_n13620# bias_a VSS VSS sky130_fd_pr__nfet_01v8 ad=0p pd=0u as=0p ps=0u w=1.4e+06u l=600000u
X41 a_n1651_n13400# VSS VSS VSS sky130_fd_pr__nfet_01v8 ad=0p pd=0u as=0p ps=0u w=1.4e+06u l=600000u
X42 bias_c bias_c bias_c VSS sky130_fd_pr__nfet_01v8 ad=0p pd=0u as=0p ps=0u w=1.4e+06u l=600000u
X43 a_n1110_n5852# a_n1110_n5852# bias_d VSS sky130_fd_pr__nfet_01v8 ad=0p pd=0u as=0p ps=0u w=1.4e+06u l=600000u
X44 bias_a bias_d a_n2185_n13400# VSS sky130_fd_pr__nfet_01v8 ad=0p pd=0u as=0p ps=0u w=1.4e+06u l=600000u
X45 a_n6314_n5010# bias_b VDD VDD sky130_fd_pr__pfet_01v8_lvt ad=0p pd=0u as=0p ps=0u w=1.4e+06u l=600000u
X46 a_n1651_n11400# bias_a VSS VSS sky130_fd_pr__nfet_01v8 ad=0p pd=0u as=0p ps=0u w=1.4e+06u l=600000u
X47 a_n5928_n13620# bias_b VDD VDD sky130_fd_pr__pfet_01v8_lvt ad=0p pd=0u as=0p ps=0u w=1.4e+06u l=600000u
X48 a_n6314_n5010# a_n6314_n5010# a_n6314_n5010# VDD sky130_fd_pr__pfet_01v8 ad=0p pd=0u as=0p ps=0u w=1.4e+06u l=600000u
X49 cm p1 sc_cmfb_0/transmission_gate_7/in VSS sky130_fd_pr__nfet_01v8 ad=0p pd=0u as=1.8668e+12p ps=1.862e+07u w=520000u l=150000u
X50 VSS VSS a_n1651_n13400# VSS sky130_fd_pr__nfet_01v8 ad=0p pd=0u as=0p ps=0u w=1.4e+06u l=600000u
X51 a_n1651_n11400# bias_d op VSS sky130_fd_pr__nfet_01v8 ad=0p pd=0u as=0p ps=0u w=1.4e+06u l=600000u
X52 a_n5928_n13620# bias_c op VDD sky130_fd_pr__pfet_01v8 ad=0p pd=0u as=0p ps=0u w=1.4e+06u l=600000u
X53 VSS i_bias i_bias VSS sky130_fd_pr__nfet_01v8 ad=0p pd=0u as=4.872e+12p ps=4.056e+07u w=1.4e+06u l=600000u
X54 a_n6314_n4140# a_n6314_n4140# a_n6314_n4140# VDD sky130_fd_pr__pfet_01v8_lvt ad=0p pd=0u as=0p ps=0u w=1.4e+06u l=600000u
X55 sc_cmfb_0/transmission_gate_3/out p1 on VSS sky130_fd_pr__nfet_01v8 ad=1.8668e+12p pd=1.862e+07u as=0p ps=0u w=520000u l=150000u
X56 sc_cmfb_0/transmission_gate_5/out p2_b bias_a VDD sky130_fd_pr__pfet_01v8 ad=4.8824e+12p pd=3.71e+07u as=0p ps=0u w=1.36e+06u l=150000u
X57 sc_cmfb_0/transmission_gate_3/out p2_b cm VDD sky130_fd_pr__pfet_01v8 ad=0p pd=0u as=0p ps=0u w=1.36e+06u l=150000u
X58 bias_a p1 sc_cmfb_0/transmission_gate_8/in VSS sky130_fd_pr__nfet_01v8 ad=0p pd=0u as=0p ps=0u w=520000u l=150000u
X59 bias_d a_n1110_n5852# a_n1110_n5852# VSS sky130_fd_pr__nfet_01v8 ad=0p pd=0u as=0p ps=0u w=1.4e+06u l=600000u
X60 on bias_d a_n1651_n13400# VSS sky130_fd_pr__nfet_01v8 ad=0p pd=0u as=0p ps=0u w=1.4e+06u l=600000u
X61 VSS bias_a a_n5580_n13620# VSS sky130_fd_pr__nfet_01v8 ad=0p pd=0u as=0p ps=0u w=1.4e+06u l=600000u
X62 VSS cmc a_n5580_n13620# VSS sky130_fd_pr__nfet_01v8 ad=0p pd=0u as=0p ps=0u w=1.4e+06u l=600000u
X63 sc_cmfb_0/transmission_gate_5/out p2 bias_a VSS sky130_fd_pr__nfet_01v8 ad=0p pd=0u as=0p ps=0u w=520000u l=150000u
X64 cmc p2_b sc_cmfb_0/transmission_gate_8/in VDD sky130_fd_pr__pfet_01v8 ad=5.2768e+12p pd=4.04e+07u as=0p ps=0u w=1.36e+06u l=150000u
X65 op p2_b sc_cmfb_0/transmission_gate_6/in VDD sky130_fd_pr__pfet_01v8 ad=0p pd=0u as=0p ps=0u w=1.36e+06u l=150000u
X66 a_n5928_n12940# bias_c on VDD sky130_fd_pr__pfet_01v8 ad=0p pd=0u as=0p ps=0u w=1.4e+06u l=600000u
X67 sc_cmfb_0/transmission_gate_6/in p1_b cm VDD sky130_fd_pr__pfet_01v8 ad=0p pd=0u as=0p ps=0u w=1.36e+06u l=150000u
X68 sc_cmfb_0/transmission_gate_4/out p1 op VSS sky130_fd_pr__nfet_01v8 ad=0p pd=0u as=0p ps=0u w=520000u l=150000u
X69 a_n5580_n13620# cmc VSS VSS sky130_fd_pr__nfet_01v8 ad=0p pd=0u as=0p ps=0u w=1.4e+06u l=600000u
X70 a_n1651_n13400# bias_d on VSS sky130_fd_pr__nfet_01v8 ad=0p pd=0u as=0p ps=0u w=1.4e+06u l=600000u
X71 bias_c bias_b bias_b VSS sky130_fd_pr__nfet_01v8_lvt ad=0p pd=0u as=0p ps=0u w=1.4e+06u l=600000u
X72 bias_d a_n1110_n5852# a_n1110_n5852# VSS sky130_fd_pr__nfet_01v8 ad=0p pd=0u as=0p ps=0u w=1.4e+06u l=600000u
X73 a_n1651_n11400# bias_d op VSS sky130_fd_pr__nfet_01v8 ad=0p pd=0u as=0p ps=0u w=1.4e+06u l=600000u
X74 op p2 sc_cmfb_0/transmission_gate_6/in VSS sky130_fd_pr__nfet_01v8 ad=0p pd=0u as=0p ps=0u w=520000u l=150000u
X75 cmc p1_b sc_cmfb_0/transmission_gate_5/out VDD sky130_fd_pr__pfet_01v8 ad=0p pd=0u as=0p ps=0u w=1.36e+06u l=150000u
X76 op bias_d a_n1651_n11400# VSS sky130_fd_pr__nfet_01v8 ad=0p pd=0u as=0p ps=0u w=1.4e+06u l=600000u
X77 a_n1110_n5852# a_n1110_n5852# a_n1110_n5852# VSS sky130_fd_pr__nfet_01v8 ad=0p pd=0u as=0p ps=0u w=1.4e+06u l=600000u
X78 a_n5580_n13620# bias_a VSS VSS sky130_fd_pr__nfet_01v8 ad=0p pd=0u as=0p ps=0u w=1.4e+06u l=600000u
X79 VSS cmc a_n5580_n13620# VSS sky130_fd_pr__nfet_01v8 ad=0p pd=0u as=0p ps=0u w=1.4e+06u l=600000u
X80 c1_16402_31# m3_16302_n69# sky130_fd_pr__cap_mim_m3_1 l=4.8e+06u w=4.8e+06u
X81 c1_7402_n3569# m3_7302_n3669# sky130_fd_pr__cap_mim_m3_1 l=4.8e+06u w=4.8e+06u
X82 VDD bias_b a_n6314_n3270# VDD sky130_fd_pr__pfet_01v8_lvt ad=0p pd=0u as=4.872e+12p ps=4.056e+07u w=1.4e+06u l=600000u
X83 on bias_d a_n1651_n13400# VSS sky130_fd_pr__nfet_01v8 ad=0p pd=0u as=0p ps=0u w=1.4e+06u l=600000u
X84 cm p2_b sc_cmfb_0/transmission_gate_3/out VDD sky130_fd_pr__pfet_01v8 ad=0p pd=0u as=0p ps=0u w=1.36e+06u l=150000u
X85 bias_c bias_c bias_c VSS sky130_fd_pr__nfet_01v8_lvt ad=0p pd=0u as=0p ps=0u w=1.4e+06u l=600000u
X86 bias_d a_n1110_n5852# a_n1110_n5852# VSS sky130_fd_pr__nfet_01v8 ad=0p pd=0u as=0p ps=0u w=1.4e+06u l=600000u
X87 a_n5580_n13620# bias_a VSS VSS sky130_fd_pr__nfet_01v8 ad=0p pd=0u as=0p ps=0u w=1.4e+06u l=600000u
X88 i_bias i_bias VSS VSS sky130_fd_pr__nfet_01v8 ad=0p pd=0u as=0p ps=0u w=1.4e+06u l=600000u
X89 sc_cmfb_0/transmission_gate_8/in p2_b cmc VDD sky130_fd_pr__pfet_01v8 ad=0p pd=0u as=0p ps=0u w=1.36e+06u l=150000u
X90 op bias_c a_n5928_n13620# VDD sky130_fd_pr__pfet_01v8 ad=0p pd=0u as=0p ps=0u w=1.4e+06u l=600000u
X91 VSS cmc a_n5580_n13620# VSS sky130_fd_pr__nfet_01v8 ad=0p pd=0u as=0p ps=0u w=1.4e+06u l=600000u
X92 sc_cmfb_0/transmission_gate_7/in p1_b cm VDD sky130_fd_pr__pfet_01v8 ad=0p pd=0u as=0p ps=0u w=1.36e+06u l=150000u
X93 a_n5580_n13620# bias_a VSS VSS sky130_fd_pr__nfet_01v8 ad=0p pd=0u as=0p ps=0u w=1.4e+06u l=600000u
X94 a_n1651_n13400# bias_d on VSS sky130_fd_pr__nfet_01v8 ad=0p pd=0u as=0p ps=0u w=1.4e+06u l=600000u
X95 on cmc sky130_fd_pr__cap_mim_m3_1 l=4.8e+06u w=4.8e+06u
X96 VDD VDD op VDD sky130_fd_pr__pfet_01v8 ad=0p pd=0u as=0p ps=0u w=1.4e+06u l=600000u
X97 VDD bias_b a_n5928_n12940# VDD sky130_fd_pr__pfet_01v8_lvt ad=0p pd=0u as=0p ps=0u w=1.4e+06u l=600000u
X98 on p1_b sc_cmfb_0/transmission_gate_3/out VDD sky130_fd_pr__pfet_01v8 ad=0p pd=0u as=0p ps=0u w=1.36e+06u l=150000u
X99 VSS VSS a_n1651_n13400# VSS sky130_fd_pr__nfet_01v8 ad=0p pd=0u as=0p ps=0u w=1.4e+06u l=600000u
X100 sc_cmfb_0/transmission_gate_8/in p1_b bias_a VDD sky130_fd_pr__pfet_01v8 ad=0p pd=0u as=0p ps=0u w=1.36e+06u l=150000u
X101 a_n5580_n13620# cmc VSS VSS sky130_fd_pr__nfet_01v8 ad=0p pd=0u as=0p ps=0u w=1.4e+06u l=600000u
X102 a_n5928_n13620# bias_c op VDD sky130_fd_pr__pfet_01v8 ad=0p pd=0u as=0p ps=0u w=1.4e+06u l=600000u
X103 a_n1110_n5852# bias_c a_n6314_n5010# VDD sky130_fd_pr__pfet_01v8 ad=1.624e+12p pd=1.352e+07u as=0p ps=0u w=1.4e+06u l=600000u
X104 bias_b bias_b bias_b VSS sky130_fd_pr__nfet_01v8_lvt ad=0p pd=0u as=0p ps=0u w=1.4e+06u l=600000u
X105 a_n5580_n13620# bias_a VSS VSS sky130_fd_pr__nfet_01v8 ad=0p pd=0u as=0p ps=0u w=1.4e+06u l=600000u
X106 bias_a bias_d a_n2185_n13400# VSS sky130_fd_pr__nfet_01v8 ad=0p pd=0u as=0p ps=0u w=1.4e+06u l=600000u
X107 op p1_b sc_cmfb_0/transmission_gate_4/out VDD sky130_fd_pr__pfet_01v8 ad=0p pd=0u as=0p ps=0u w=1.36e+06u l=150000u
X108 VSS i_bias bias_c VSS sky130_fd_pr__nfet_01v8 ad=0p pd=0u as=0p ps=0u w=1.4e+06u l=600000u
X109 VSS bias_a a_n5580_n13620# VSS sky130_fd_pr__nfet_01v8 ad=0p pd=0u as=0p ps=0u w=1.4e+06u l=600000u
X110 VDD bias_b a_n5928_n12940# VDD sky130_fd_pr__pfet_01v8_lvt ad=0p pd=0u as=0p ps=0u w=1.4e+06u l=600000u
X111 op op op VSS sky130_fd_pr__nfet_01v8 ad=0p pd=0u as=0p ps=0u w=1.4e+06u l=600000u
X112 VSS bias_a a_n5580_n13620# VSS sky130_fd_pr__nfet_01v8 ad=0p pd=0u as=0p ps=0u w=1.4e+06u l=600000u
X113 a_n6314_n4140# a_n6314_n4140# a_n6314_n4140# VDD sky130_fd_pr__pfet_01v8_lvt ad=0p pd=0u as=0p ps=0u w=1.4e+06u l=600000u
X114 VSS VSS a_n1651_n11400# VSS sky130_fd_pr__nfet_01v8 ad=0p pd=0u as=0p ps=0u w=1.4e+06u l=600000u
X115 a_n1651_n13400# bias_d on VSS sky130_fd_pr__nfet_01v8 ad=0p pd=0u as=0p ps=0u w=1.4e+06u l=600000u
X116 a_n5928_n13620# in a_n5580_n13620# VSS sky130_fd_pr__nfet_01v8_lvt ad=0p pd=0u as=0p ps=0u w=1.2e+06u l=200000u
X117 VDD bias_b a_n5928_n12940# VDD sky130_fd_pr__pfet_01v8_lvt ad=0p pd=0u as=0p ps=0u w=1.4e+06u l=600000u
X118 cm cm cm VSS sky130_fd_pr__nfet_01v8 ad=0p pd=0u as=0p ps=0u w=1.4e+06u l=600000u
X119 a_n5928_n12940# a_n5928_n12940# a_n5928_n12940# VSS sky130_fd_pr__nfet_01v8_lvt ad=0p pd=0u as=0p ps=0u w=1.2e+06u l=200000u
X120 cm p1_b sc_cmfb_0/transmission_gate_7/in VDD sky130_fd_pr__pfet_01v8 ad=0p pd=0u as=0p ps=0u w=1.36e+06u l=150000u
X121 a_n5580_n13620# cmc VSS VSS sky130_fd_pr__nfet_01v8 ad=0p pd=0u as=0p ps=0u w=1.4e+06u l=600000u
X122 bias_c bias_b bias_b VSS sky130_fd_pr__nfet_01v8_lvt ad=0p pd=0u as=0p ps=0u w=1.4e+06u l=600000u
X123 sc_cmfb_0/transmission_gate_3/out p1_b on VDD sky130_fd_pr__pfet_01v8 ad=0p pd=0u as=0p ps=0u w=1.36e+06u l=150000u
X124 a_n5928_n12940# bias_c on VDD sky130_fd_pr__pfet_01v8 ad=0p pd=0u as=0p ps=0u w=1.4e+06u l=600000u
X125 VSS bias_a a_n5580_n13620# VSS sky130_fd_pr__nfet_01v8 ad=0p pd=0u as=0p ps=0u w=1.4e+06u l=600000u
X126 bias_a p2_b sc_cmfb_0/transmission_gate_5/out VDD sky130_fd_pr__pfet_01v8 ad=0p pd=0u as=0p ps=0u w=1.36e+06u l=150000u
X127 VSS i_bias i_bias VSS sky130_fd_pr__nfet_01v8 ad=0p pd=0u as=0p ps=0u w=1.4e+06u l=600000u
X128 VDD bias_b a_n5928_n13620# VDD sky130_fd_pr__pfet_01v8_lvt ad=0p pd=0u as=0p ps=0u w=1.4e+06u l=600000u
X129 VDD bias_b a_n6314_n5010# VDD sky130_fd_pr__pfet_01v8_lvt ad=0p pd=0u as=0p ps=0u w=1.4e+06u l=600000u
X130 on bias_d a_n1651_n13400# VSS sky130_fd_pr__nfet_01v8 ad=0p pd=0u as=0p ps=0u w=1.4e+06u l=600000u
X131 bias_a p2 sc_cmfb_0/transmission_gate_5/out VSS sky130_fd_pr__nfet_01v8 ad=0p pd=0u as=0p ps=0u w=520000u l=150000u
X132 a_n1110_n5852# bias_c a_n6314_n5010# VDD sky130_fd_pr__pfet_01v8 ad=0p pd=0u as=0p ps=0u w=1.4e+06u l=600000u
X133 a_n5580_n13620# bias_a VSS VSS sky130_fd_pr__nfet_01v8 ad=0p pd=0u as=0p ps=0u w=1.4e+06u l=600000u
X134 bias_c bias_c bias_c VSS sky130_fd_pr__nfet_01v8 ad=0p pd=0u as=0p ps=0u w=1.4e+06u l=600000u
X135 sc_cmfb_0/transmission_gate_6/in p2_b op VDD sky130_fd_pr__pfet_01v8 ad=0p pd=0u as=0p ps=0u w=1.36e+06u l=150000u
X136 on p2_b sc_cmfb_0/transmission_gate_7/in VDD sky130_fd_pr__pfet_01v8 ad=0p pd=0u as=0p ps=0u w=1.36e+06u l=150000u
X137 sc_cmfb_0/transmission_gate_7/in p2_b on VDD sky130_fd_pr__pfet_01v8 ad=0p pd=0u as=0p ps=0u w=1.36e+06u l=150000u
X138 VSS i_bias bias_c VSS sky130_fd_pr__nfet_01v8 ad=0p pd=0u as=0p ps=0u w=1.4e+06u l=600000u
X139 a_n5580_n13620# cmc VSS VSS sky130_fd_pr__nfet_01v8 ad=0p pd=0u as=0p ps=0u w=1.4e+06u l=600000u
X140 op bias_c a_n5928_n13620# VDD sky130_fd_pr__pfet_01v8 ad=0p pd=0u as=0p ps=0u w=1.4e+06u l=600000u
X141 VSS cmc a_n5580_n13620# VSS sky130_fd_pr__nfet_01v8 ad=0p pd=0u as=0p ps=0u w=1.4e+06u l=600000u
X142 op bias_c a_n5928_n13620# VDD sky130_fd_pr__pfet_01v8 ad=0p pd=0u as=0p ps=0u w=1.4e+06u l=600000u
X143 sc_cmfb_0/transmission_gate_6/in p2 op VSS sky130_fd_pr__nfet_01v8 ad=0p pd=0u as=0p ps=0u w=520000u l=150000u
X144 VDD bias_b a_n6314_n4140# VDD sky130_fd_pr__pfet_01v8_lvt ad=0p pd=0u as=0p ps=0u w=1.4e+06u l=600000u
X145 bias_d a_n1110_n5852# a_n1110_n5852# VSS sky130_fd_pr__nfet_01v8 ad=0p pd=0u as=0p ps=0u w=1.4e+06u l=600000u
X146 bias_a bias_a bias_a VSS sky130_fd_pr__nfet_01v8 ad=0p pd=0u as=0p ps=0u w=1.4e+06u l=600000u
X147 VSS cmc a_n5580_n13620# VSS sky130_fd_pr__nfet_01v8 ad=0p pd=0u as=0p ps=0u w=1.4e+06u l=600000u
X148 a_n1651_n11400# VSS VSS VSS sky130_fd_pr__nfet_01v8 ad=0p pd=0u as=0p ps=0u w=1.4e+06u l=600000u
X149 sc_cmfb_0/transmission_gate_7/in p2_b on VDD sky130_fd_pr__pfet_01v8 ad=0p pd=0u as=0p ps=0u w=1.36e+06u l=150000u
X150 a_n5928_n12940# bias_b VDD VDD sky130_fd_pr__pfet_01v8_lvt ad=0p pd=0u as=0p ps=0u w=1.4e+06u l=600000u
X151 a_n5580_n13620# bias_a VSS VSS sky130_fd_pr__nfet_01v8 ad=0p pd=0u as=0p ps=0u w=1.4e+06u l=600000u
X152 a_n1651_n13400# bias_d on VSS sky130_fd_pr__nfet_01v8 ad=0p pd=0u as=0p ps=0u w=1.4e+06u l=600000u
X153 on p2_b sc_cmfb_0/transmission_gate_7/in VDD sky130_fd_pr__pfet_01v8 ad=0p pd=0u as=0p ps=0u w=1.36e+06u l=150000u
X154 VDD bias_b a_n5928_n13620# VDD sky130_fd_pr__pfet_01v8_lvt ad=0p pd=0u as=0p ps=0u w=1.4e+06u l=600000u
X155 cm p2 sc_cmfb_0/transmission_gate_3/out VSS sky130_fd_pr__nfet_01v8 ad=0p pd=0u as=0p ps=0u w=520000u l=150000u
X156 sc_cmfb_0/transmission_gate_7/in p2_b on VDD sky130_fd_pr__pfet_01v8 ad=0p pd=0u as=0p ps=0u w=1.36e+06u l=150000u
X157 on VDD VDD VDD sky130_fd_pr__pfet_01v8 ad=0p pd=0u as=0p ps=0u w=1.4e+06u l=600000u
X158 VSS cmc a_n5580_n13620# VSS sky130_fd_pr__nfet_01v8 ad=0p pd=0u as=0p ps=0u w=1.4e+06u l=600000u
X159 VSS i_bias i_bias VSS sky130_fd_pr__nfet_01v8 ad=0p pd=0u as=0p ps=0u w=1.4e+06u l=600000u
X160 bias_c bias_c bias_c VSS sky130_fd_pr__nfet_01v8_lvt ad=0p pd=0u as=0p ps=0u w=1.4e+06u l=600000u
X161 bias_b bias_b bias_c VSS sky130_fd_pr__nfet_01v8_lvt ad=0p pd=0u as=0p ps=0u w=1.4e+06u l=600000u
X162 c1_14602_1831# m3_14502_1731# sky130_fd_pr__cap_mim_m3_1 l=4.8e+06u w=4.8e+06u
X163 a_n5580_n13620# bias_a VSS VSS sky130_fd_pr__nfet_01v8 ad=0p pd=0u as=0p ps=0u w=1.4e+06u l=600000u
X164 VDD VDD VDD VDD sky130_fd_pr__pfet_01v8 ad=0p pd=0u as=0p ps=0u w=1.4e+06u l=600000u
X165 sc_cmfb_0/transmission_gate_8/in p2 cmc VSS sky130_fd_pr__nfet_01v8 ad=0p pd=0u as=2.0176e+12p ps=2.024e+07u w=520000u l=150000u
X166 a_n1110_n5852# a_n1110_n5852# bias_d VSS sky130_fd_pr__nfet_01v8 ad=0p pd=0u as=0p ps=0u w=1.4e+06u l=600000u
X167 a_n5928_n12940# bias_b VDD VDD sky130_fd_pr__pfet_01v8_lvt ad=0p pd=0u as=0p ps=0u w=1.4e+06u l=600000u
X168 VSS cmc a_n5580_n13620# VSS sky130_fd_pr__nfet_01v8 ad=0p pd=0u as=0p ps=0u w=1.4e+06u l=600000u
X169 sc_cmfb_0/transmission_gate_7/in p2_b on VDD sky130_fd_pr__pfet_01v8 ad=0p pd=0u as=0p ps=0u w=1.36e+06u l=150000u
X170 cm p1_b sc_cmfb_0/transmission_gate_6/in VDD sky130_fd_pr__pfet_01v8 ad=0p pd=0u as=0p ps=0u w=1.36e+06u l=150000u
X171 VSS cmc a_n5580_n13620# VSS sky130_fd_pr__nfet_01v8 ad=0p pd=0u as=0p ps=0u w=1.4e+06u l=600000u
X172 on p2_b sc_cmfb_0/transmission_gate_7/in VDD sky130_fd_pr__pfet_01v8 ad=0p pd=0u as=0p ps=0u w=1.36e+06u l=150000u
X173 c1_14602_n7169# m3_14502_n7269# sky130_fd_pr__cap_mim_m3_1 l=4.8e+06u w=4.8e+06u
X174 VSS cmc a_n5580_n13620# VSS sky130_fd_pr__nfet_01v8 ad=0p pd=0u as=0p ps=0u w=1.4e+06u l=600000u
X175 sc_cmfb_0/transmission_gate_4/out p2_b cm VDD sky130_fd_pr__pfet_01v8 ad=0p pd=0u as=0p ps=0u w=1.36e+06u l=150000u
X176 a_n1651_n11400# bias_d op VSS sky130_fd_pr__nfet_01v8 ad=0p pd=0u as=0p ps=0u w=1.4e+06u l=600000u
X177 a_n5580_n13620# cmc VSS VSS sky130_fd_pr__nfet_01v8 ad=0p pd=0u as=0p ps=0u w=1.4e+06u l=600000u
X178 VSS VSS a_n1651_n11400# VSS sky130_fd_pr__nfet_01v8 ad=0p pd=0u as=0p ps=0u w=1.4e+06u l=600000u
X179 sc_cmfb_0/transmission_gate_5/out p1_b cmc VDD sky130_fd_pr__pfet_01v8 ad=0p pd=0u as=0p ps=0u w=1.36e+06u l=150000u
X180 a_n1110_n5852# a_n1110_n5852# bias_d VSS sky130_fd_pr__nfet_01v8 ad=0p pd=0u as=0p ps=0u w=1.4e+06u l=600000u
X181 VSS cmc a_n5580_n13620# VSS sky130_fd_pr__nfet_01v8 ad=0p pd=0u as=0p ps=0u w=1.4e+06u l=600000u
X182 a_n5580_n13620# cmc VSS VSS sky130_fd_pr__nfet_01v8 ad=0p pd=0u as=0p ps=0u w=1.4e+06u l=600000u
X183 a_n2185_n13400# bias_a VSS VSS sky130_fd_pr__nfet_01v8 ad=0p pd=0u as=0p ps=0u w=1.4e+06u l=600000u
X184 on on on VSS sky130_fd_pr__nfet_01v8 ad=0p pd=0u as=0p ps=0u w=1.4e+06u l=600000u
X185 cm p2_b sc_cmfb_0/transmission_gate_4/out VDD sky130_fd_pr__pfet_01v8 ad=0p pd=0u as=0p ps=0u w=1.36e+06u l=150000u
X186 bias_b bias_b bias_b VSS sky130_fd_pr__nfet_01v8_lvt ad=0p pd=0u as=0p ps=0u w=1.4e+06u l=600000u
X187 bias_c bias_b bias_b VSS sky130_fd_pr__nfet_01v8_lvt ad=0p pd=0u as=0p ps=0u w=1.4e+06u l=600000u
X188 a_n1110_n5852# a_n1110_n5852# a_n1110_n5852# VSS sky130_fd_pr__nfet_01v8 ad=0p pd=0u as=0p ps=0u w=1.4e+06u l=600000u
X189 a_n5580_n13620# cmc VSS VSS sky130_fd_pr__nfet_01v8 ad=0p pd=0u as=0p ps=0u w=1.4e+06u l=600000u
X190 VSS bias_a a_n5580_n13620# VSS sky130_fd_pr__nfet_01v8 ad=0p pd=0u as=0p ps=0u w=1.4e+06u l=600000u
X191 a_n1651_n13400# bias_d on VSS sky130_fd_pr__nfet_01v8 ad=0p pd=0u as=0p ps=0u w=1.4e+06u l=600000u
X192 a_n5580_n13620# cmc VSS VSS sky130_fd_pr__nfet_01v8 ad=0p pd=0u as=0p ps=0u w=1.4e+06u l=600000u
X193 bias_d a_n1110_n5852# a_n1110_n5852# VSS sky130_fd_pr__nfet_01v8 ad=0p pd=0u as=0p ps=0u w=1.4e+06u l=600000u
X194 a_n5580_n13620# a_n5580_n13620# a_n5580_n13620# VSS sky130_fd_pr__nfet_01v8 ad=0p pd=0u as=0p ps=0u w=1.4e+06u l=600000u
X195 a_n1651_n11400# bias_d op VSS sky130_fd_pr__nfet_01v8 ad=0p pd=0u as=0p ps=0u w=1.4e+06u l=600000u
X196 VSS bias_a a_n5580_n13620# VSS sky130_fd_pr__nfet_01v8 ad=0p pd=0u as=0p ps=0u w=1.4e+06u l=600000u
X197 c1_16402_n5369# m3_16302_n5469# sky130_fd_pr__cap_mim_m3_1 l=4.8e+06u w=4.8e+06u
X198 a_12106_n9962# cm a_11928_n10732# VSS sky130_fd_pr__nfet_01v8 ad=8.12e+11p pd=6.76e+06u as=8.12e+11p ps=6.76e+06u w=1.4e+06u l=600000u
X199 VSS i_bias bias_c VSS sky130_fd_pr__nfet_01v8 ad=0p pd=0u as=0p ps=0u w=1.4e+06u l=600000u
X200 a_n1651_n11400# bias_a VSS VSS sky130_fd_pr__nfet_01v8 ad=0p pd=0u as=0p ps=0u w=1.4e+06u l=600000u
X201 on p2 sc_cmfb_0/transmission_gate_7/in VSS sky130_fd_pr__nfet_01v8 ad=0p pd=0u as=0p ps=0u w=520000u l=150000u
X202 bias_c i_bias VSS VSS sky130_fd_pr__nfet_01v8 ad=0p pd=0u as=0p ps=0u w=1.4e+06u l=600000u
X203 sc_cmfb_0/transmission_gate_5/out p2_b bias_a VDD sky130_fd_pr__pfet_01v8 ad=0p pd=0u as=0p ps=0u w=1.36e+06u l=150000u
X204 sc_cmfb_0/transmission_gate_7/in p2 on VSS sky130_fd_pr__nfet_01v8 ad=0p pd=0u as=0p ps=0u w=520000u l=150000u
X205 op bias_c a_n5928_n13620# VDD sky130_fd_pr__pfet_01v8 ad=0p pd=0u as=0p ps=0u w=1.4e+06u l=600000u
X206 a_n5928_n13620# a_n5928_n13620# a_n5928_n13620# VDD sky130_fd_pr__pfet_01v8 ad=0p pd=0u as=0p ps=0u w=1.4e+06u l=600000u
X207 VSS bias_a a_n5580_n13620# VSS sky130_fd_pr__nfet_01v8 ad=0p pd=0u as=0p ps=0u w=1.4e+06u l=600000u
X208 bias_c bias_b bias_b VSS sky130_fd_pr__nfet_01v8_lvt ad=0p pd=0u as=0p ps=0u w=1.4e+06u l=600000u
X209 bias_c bias_b bias_b VSS sky130_fd_pr__nfet_01v8_lvt ad=0p pd=0u as=0p ps=0u w=1.4e+06u l=600000u
X210 VSS bias_a a_n5580_n13620# VSS sky130_fd_pr__nfet_01v8 ad=0p pd=0u as=0p ps=0u w=1.4e+06u l=600000u
X211 op bias_c a_n5928_n13620# VDD sky130_fd_pr__pfet_01v8 ad=0p pd=0u as=0p ps=0u w=1.4e+06u l=600000u
X212 bias_c bias_b bias_b VSS sky130_fd_pr__nfet_01v8_lvt ad=0p pd=0u as=0p ps=0u w=1.4e+06u l=600000u
X213 VSS bias_a a_n5580_n13620# VSS sky130_fd_pr__nfet_01v8 ad=0p pd=0u as=0p ps=0u w=1.4e+06u l=600000u
X214 sc_cmfb_0/transmission_gate_5/out p2 bias_a VSS sky130_fd_pr__nfet_01v8 ad=0p pd=0u as=0p ps=0u w=520000u l=150000u
X215 VDD VDD a_n1110_n5852# VDD sky130_fd_pr__pfet_01v8 ad=0p pd=0u as=0p ps=0u w=1.4e+06u l=600000u
X216 VSS bias_a a_n5580_n13620# VSS sky130_fd_pr__nfet_01v8 ad=0p pd=0u as=0p ps=0u w=1.4e+06u l=600000u
X217 op p2_b sc_cmfb_0/transmission_gate_6/in VDD sky130_fd_pr__pfet_01v8 ad=0p pd=0u as=0p ps=0u w=1.36e+06u l=150000u
X218 sc_cmfb_0/transmission_gate_6/in p1 cm VSS sky130_fd_pr__nfet_01v8 ad=0p pd=0u as=0p ps=0u w=520000u l=150000u
X219 a_n1110_n5852# a_n1110_n5852# bias_d VSS sky130_fd_pr__nfet_01v8 ad=0p pd=0u as=0p ps=0u w=1.4e+06u l=600000u
X220 a_n2185_n13400# VSS VSS VSS sky130_fd_pr__nfet_01v8 ad=0p pd=0u as=0p ps=0u w=1.4e+06u l=600000u
X221 a_n5580_n13620# bias_a VSS VSS sky130_fd_pr__nfet_01v8 ad=0p pd=0u as=0p ps=0u w=1.4e+06u l=600000u
X222 bias_a p1_b sc_cmfb_0/transmission_gate_8/in VDD sky130_fd_pr__pfet_01v8 ad=0p pd=0u as=0p ps=0u w=1.36e+06u l=150000u
X223 VSS bias_a a_n5580_n13620# VSS sky130_fd_pr__nfet_01v8 ad=0p pd=0u as=0p ps=0u w=1.4e+06u l=600000u
X224 sc_cmfb_0/transmission_gate_7/in p2 on VSS sky130_fd_pr__nfet_01v8 ad=0p pd=0u as=0p ps=0u w=520000u l=150000u
X225 a_n6314_n3270# bias_b VDD VDD sky130_fd_pr__pfet_01v8_lvt ad=0p pd=0u as=0p ps=0u w=1.4e+06u l=600000u
X226 a_n5928_n12940# a_n5928_n12940# a_n5928_n12940# VSS sky130_fd_pr__nfet_01v8_lvt ad=0p pd=0u as=0p ps=0u w=1.2e+06u l=200000u
X227 op p2 sc_cmfb_0/transmission_gate_6/in VSS sky130_fd_pr__nfet_01v8 ad=0p pd=0u as=0p ps=0u w=520000u l=150000u
X228 on p2 sc_cmfb_0/transmission_gate_7/in VSS sky130_fd_pr__nfet_01v8 ad=0p pd=0u as=0p ps=0u w=520000u l=150000u
X229 sc_cmfb_0/transmission_gate_7/in p2 on VSS sky130_fd_pr__nfet_01v8 ad=0p pd=0u as=0p ps=0u w=520000u l=150000u
X230 cmc p1 sc_cmfb_0/transmission_gate_5/out VSS sky130_fd_pr__nfet_01v8 ad=0p pd=0u as=0p ps=0u w=520000u l=150000u
X231 a_n1651_n13400# bias_d on VSS sky130_fd_pr__nfet_01v8 ad=0p pd=0u as=0p ps=0u w=1.4e+06u l=600000u
X232 sc_cmfb_0/transmission_gate_4/out p1_b op VDD sky130_fd_pr__pfet_01v8 ad=0p pd=0u as=0p ps=0u w=1.36e+06u l=150000u
X233 a_n1651_n13400# bias_a VSS VSS sky130_fd_pr__nfet_01v8 ad=0p pd=0u as=0p ps=0u w=1.4e+06u l=600000u
X234 a_n5580_n13620# in a_n5928_n13620# VSS sky130_fd_pr__nfet_01v8_lvt ad=0p pd=0u as=0p ps=0u w=1.2e+06u l=200000u
X235 a_n2185_n13400# bias_a VSS VSS sky130_fd_pr__nfet_01v8 ad=0p pd=0u as=0p ps=0u w=1.4e+06u l=600000u
X236 a_n6314_n3270# bias_c bias_b VDD sky130_fd_pr__pfet_01v8 ad=0p pd=0u as=1.624e+12p ps=1.352e+07u w=1.4e+06u l=600000u
X237 a_n5928_n13620# bias_b VDD VDD sky130_fd_pr__pfet_01v8_lvt ad=0p pd=0u as=0p ps=0u w=1.4e+06u l=600000u
X238 bias_d a_n1110_n5852# a_n1110_n5852# VSS sky130_fd_pr__nfet_01v8 ad=0p pd=0u as=0p ps=0u w=1.4e+06u l=600000u
X239 bias_c bias_c bias_c VSS sky130_fd_pr__nfet_01v8_lvt ad=0p pd=0u as=0p ps=0u w=1.4e+06u l=600000u
X240 VSS i_bias bias_c VSS sky130_fd_pr__nfet_01v8 ad=0p pd=0u as=0p ps=0u w=1.4e+06u l=600000u
X241 a_n5580_n13620# bias_a VSS VSS sky130_fd_pr__nfet_01v8 ad=0p pd=0u as=0p ps=0u w=1.4e+06u l=600000u
X242 a_n2185_n13400# bias_a VSS VSS sky130_fd_pr__nfet_01v8 ad=0p pd=0u as=0p ps=0u w=1.4e+06u l=600000u
X243 a_n1651_n13400# VSS VSS VSS sky130_fd_pr__nfet_01v8 ad=0p pd=0u as=0p ps=0u w=1.4e+06u l=600000u
X244 sc_cmfb_0/transmission_gate_7/in p2 on VSS sky130_fd_pr__nfet_01v8 ad=0p pd=0u as=0p ps=0u w=520000u l=150000u
X245 on p2 sc_cmfb_0/transmission_gate_7/in VSS sky130_fd_pr__nfet_01v8 ad=0p pd=0u as=0p ps=0u w=520000u l=150000u
X246 a_n5580_n13620# a_n5580_n13620# a_n5580_n13620# VSS sky130_fd_pr__nfet_01v8 ad=0p pd=0u as=0p ps=0u w=1.4e+06u l=600000u
X247 a_n1110_n5852# a_n1110_n5852# bias_d VSS sky130_fd_pr__nfet_01v8 ad=0p pd=0u as=0p ps=0u w=1.4e+06u l=600000u
X248 sc_cmfb_0/transmission_gate_4/out p2 cm VSS sky130_fd_pr__nfet_01v8 ad=0p pd=0u as=0p ps=0u w=520000u l=150000u
X249 on bias_c a_n5928_n12940# VDD sky130_fd_pr__pfet_01v8 ad=0p pd=0u as=0p ps=0u w=1.4e+06u l=600000u
X250 a_n1651_n13400# bias_a VSS VSS sky130_fd_pr__nfet_01v8 ad=0p pd=0u as=0p ps=0u w=1.4e+06u l=600000u
X251 a_n6314_n4140# bias_b VDD VDD sky130_fd_pr__pfet_01v8_lvt ad=0p pd=0u as=0p ps=0u w=1.4e+06u l=600000u
X252 bias_b bias_b bias_c VSS sky130_fd_pr__nfet_01v8_lvt ad=0p pd=0u as=0p ps=0u w=1.4e+06u l=600000u
X253 a_n1110_n5852# a_n1110_n5852# bias_d VSS sky130_fd_pr__nfet_01v8 ad=0p pd=0u as=0p ps=0u w=1.4e+06u l=600000u
X254 a_n5928_n13620# bias_b VDD VDD sky130_fd_pr__pfet_01v8_lvt ad=0p pd=0u as=0p ps=0u w=1.4e+06u l=600000u
X255 bias_d bias_d bias_d VSS sky130_fd_pr__nfet_01v8 ad=0p pd=0u as=0p ps=0u w=1.4e+06u l=600000u
X256 bias_b bias_b bias_c VSS sky130_fd_pr__nfet_01v8_lvt ad=0p pd=0u as=0p ps=0u w=1.4e+06u l=600000u
X257 VSS cmc a_n5580_n13620# VSS sky130_fd_pr__nfet_01v8 ad=0p pd=0u as=0p ps=0u w=1.4e+06u l=600000u
X258 VSS cmc a_n5580_n13620# VSS sky130_fd_pr__nfet_01v8 ad=0p pd=0u as=0p ps=0u w=1.4e+06u l=600000u
X259 VSS cmc a_n5580_n13620# VSS sky130_fd_pr__nfet_01v8 ad=0p pd=0u as=0p ps=0u w=1.4e+06u l=600000u
X260 VDD VDD a_n5928_n12940# VDD sky130_fd_pr__pfet_01v8 ad=0p pd=0u as=0p ps=0u w=1.4e+06u l=600000u
X261 a_n1651_n11400# bias_a VSS VSS sky130_fd_pr__nfet_01v8 ad=0p pd=0u as=0p ps=0u w=1.4e+06u l=600000u
X262 cm p2 sc_cmfb_0/transmission_gate_4/out VSS sky130_fd_pr__nfet_01v8 ad=0p pd=0u as=0p ps=0u w=520000u l=150000u
X263 a_n5928_n13620# bias_c op VDD sky130_fd_pr__pfet_01v8 ad=0p pd=0u as=0p ps=0u w=1.4e+06u l=600000u
X264 a_n6314_n5010# a_n6314_n5010# a_n6314_n5010# VDD sky130_fd_pr__pfet_01v8_lvt ad=0p pd=0u as=0p ps=0u w=1.4e+06u l=600000u
X265 a_n1651_n13400# bias_d on VSS sky130_fd_pr__nfet_01v8 ad=0p pd=0u as=0p ps=0u w=1.4e+06u l=600000u
X266 VSS cmc a_n5580_n13620# VSS sky130_fd_pr__nfet_01v8 ad=0p pd=0u as=0p ps=0u w=1.4e+06u l=600000u
X267 a_n5580_n13620# bias_a VSS VSS sky130_fd_pr__nfet_01v8 ad=0p pd=0u as=0p ps=0u w=1.4e+06u l=600000u
X268 cm p1 sc_cmfb_0/transmission_gate_7/in VSS sky130_fd_pr__nfet_01v8 ad=0p pd=0u as=0p ps=0u w=520000u l=150000u