* NGSPICE file created from comparator_v2.ext - technology: sky130A

.subckt sky130_fd_pr__pfet_01v8_VCQUSW a_n810_n632# a_1802_n632# a_n4080_n100# a_2640_n100#
+ a_2010_n100# a_3852_131# a_n3750_n632# a_n3120_n632# a_3600_n632# a_2594_n401# a_n88_n632#
+ a_n2866_n401# a_n2912_n100# a_n718_n632# a_n556_n729# a_2548_n100# a_n182_n100#
+ a_n3658_n632# a_n3028_n632# a_n3496_n729# a_2012_n632# a_2642_n632# a_n1140_n100#
+ a_n1770_n100# a_n1398_n197# a_2172_131# a_n812_n100# a_n4128_131# a_3224_n729# a_n766_n401#
+ a_3480_n100# a_n3122_n100# a_n3752_n100# a_240_n632# a_870_n632# a_n2448_131# a_3388_n100#
+ a_3434_n401# a_n3706_n401# a_3482_n632# a_492_131# a_1500_n632# a_4064_n729# a_n1650_n632#
+ a_n1020_n632# a_n768_131# a_n2238_n197# a_n1558_n632# a_n2610_n100# a_n1396_n729#
+ w_n4520_n851# a_750_n100# a_120_n100# a_1124_n729# a_n2490_n632# a_2340_n632# a_2970_n632#
+ a_1380_n100# a_658_n100# a_n510_n100# a_n1022_n100# a_n1652_n100# a_n138_n197# a_1288_n100#
+ a_n3450_n100# a_n3078_n197# a_n2398_n632# a_122_n632# a_752_n632# a_1334_n401# a_74_n401#
+ a_702_n197# a_1382_n632# a_n1606_n401# a_1962_n197# a_3012_131# a_n390_n632# a_1918_n100#
+ a_28_n100# a_3180_n632# a_n2492_n100# a_1332_131# a_n2236_n729# a_n298_n632# a_3810_n632#
+ a_2850_n100# a_2220_n100# a_n3960_n632# a_n3330_n632# a_2174_n401# a_n1608_131#
+ a_n928_n632# a_n2446_n401# a_n136_n729# a_n3868_n632# a_n3238_n632# a_2758_n100#
+ a_2128_n100# a_n392_n100# a_n3076_n729# a_2802_n197# a_2222_n632# a_2852_n632# a_n1350_n100#
+ a_n1980_n100# a_n4170_n632# a_4020_n632# a_n346_n401# a_3690_n100# a_3060_n100#
+ a_n3332_n100# a_n3962_n100# a_2592_131# a_450_n632# a_n3286_n401# a_3598_n100# a_n4078_n632#
+ a_1080_n632# a_3014_n401# a_n2868_131# a_3062_n632# a_3692_n632# a_n2190_n100# a_3642_n197#
+ a_n1860_n632# a_n1230_n632# a_1710_n632# a_n4172_n100# a_n2820_n100# a_n1768_n632#
+ a_n1138_n632# a_n1188_131# a_704_n729# a_n4126_n401# a_960_n100# a_330_n100# a_1964_n729#
+ a_1590_n100# a_282_n197# a_n2070_n632# a_2550_n632# a_n90_n100# a_n978_n197# a_n1186_n401#
+ a_868_n100# a_238_n100# a_n720_n100# a_n1232_n100# a_n1862_n100# a_914_n401# a_1498_n100#
+ a_n3030_n100# a_n3660_n100# a_n2700_n632# a_332_n632# a_962_n632# a_1542_n197# a_1592_n632#
+ a_n3918_n197# a_n2608_n632# a_3390_n632# a_n2072_n100# a_3432_131# a_n600_n632#
+ a_1752_131# a_2804_n729# a_n3540_n632# a_2430_n100# a_n2702_n100# a_n3708_131# a_n508_n632#
+ a_n2026_n401# a_2382_n197# a_2968_n100# a_2338_n100# a_n976_n729# a_n3448_n632#
+ a_n1560_n100# a_2432_n632# a_3644_n729# a_3270_n100# a_n602_n100# a_n2028_131# a_n3916_n729#
+ a_n3542_n100# a_660_n632# a_n1818_n197# a_3178_n100# a_1290_n632# a_3900_n100# a_3854_n401#
+ a_3222_n197# a_3272_n632# a_n348_131# a_30_n632# a_3808_n100# a_n1440_n632# a_1920_n632#
+ a_284_n729# a_n2658_n197# a_3902_n632# a_n2400_n100# a_n1978_n632# a_n1348_n632#
+ a_n3288_131# a_4110_n100# a_494_n401# a_540_n100# a_4062_n197# a_4018_n100# a_1544_n729#
+ a_n2280_n632# a_2130_n632# a_2760_n632# a_1170_n100# a_72_131# a_n300_n100# a_n930_n100#
+ a_n1442_n100# a_n558_n197# a_n1816_n729# a_448_n100# a_n3240_n100# a_n3870_n100#
+ a_n3498_n197# a_n2188_n632# a_4112_n632# a_1078_n100# a_1754_n401# a_1800_n100#
+ a_n2910_n632# a_542_n632# a_1122_n197# a_n180_n632# a_1172_n632# a_2384_n729# a_n2818_n632#
+ a_1708_n100# a_912_131# VSUBS a_n2656_n729# a_n2282_n100#
X0 a_n90_n100# a_n138_n197# a_n182_n100# w_n4520_n851# sky130_fd_pr__pfet_01v8 ad=3.1e+11p pd=2.62e+06u as=3.1e+11p ps=2.62e+06u w=1e+06u l=150000u
X1 a_330_n100# a_282_n197# a_238_n100# w_n4520_n851# sky130_fd_pr__pfet_01v8 ad=3.1e+11p pd=2.62e+06u as=3.1e+11p ps=2.62e+06u w=1e+06u l=150000u
X2 a_n3868_n632# a_n3916_n729# a_n3960_n632# w_n4520_n851# sky130_fd_pr__pfet_01v8 ad=3.1e+11p pd=2.62e+06u as=3.1e+11p ps=2.62e+06u w=1e+06u l=150000u
X3 a_n1348_n632# a_n1396_n729# a_n1440_n632# w_n4520_n851# sky130_fd_pr__pfet_01v8 ad=3.1e+11p pd=2.62e+06u as=3.1e+11p ps=2.62e+06u w=1e+06u l=150000u
X4 a_n3450_n100# a_n3498_n197# a_n3542_n100# w_n4520_n851# sky130_fd_pr__pfet_01v8 ad=3.1e+11p pd=2.62e+06u as=3.1e+11p ps=2.62e+06u w=1e+06u l=150000u
X5 a_3480_n100# a_3432_131# a_3388_n100# w_n4520_n851# sky130_fd_pr__pfet_01v8 ad=3.1e+11p pd=2.62e+06u as=3.1e+11p ps=2.62e+06u w=1e+06u l=150000u
X6 a_3062_n632# a_3014_n401# a_2970_n632# w_n4520_n851# sky130_fd_pr__pfet_01v8 ad=3.1e+11p pd=2.62e+06u as=3.1e+11p ps=2.62e+06u w=1e+06u l=150000u
X7 a_542_n632# a_494_n401# a_450_n632# w_n4520_n851# sky130_fd_pr__pfet_01v8 ad=3.1e+11p pd=2.62e+06u as=3.1e+11p ps=2.62e+06u w=1e+06u l=150000u
X8 a_2432_n632# a_2384_n729# a_2340_n632# w_n4520_n851# sky130_fd_pr__pfet_01v8 ad=3.1e+11p pd=2.62e+06u as=3.1e+11p ps=2.62e+06u w=1e+06u l=150000u
X9 a_n1770_n100# a_n1818_n197# a_n1862_n100# w_n4520_n851# sky130_fd_pr__pfet_01v8 ad=3.1e+11p pd=2.62e+06u as=3.1e+11p ps=2.62e+06u w=1e+06u l=150000u
X10 a_1800_n100# a_1752_131# a_1708_n100# w_n4520_n851# sky130_fd_pr__pfet_01v8 ad=3.1e+11p pd=2.62e+06u as=3.1e+11p ps=2.62e+06u w=1e+06u l=150000u
X11 a_n508_n632# a_n556_n729# a_n600_n632# w_n4520_n851# sky130_fd_pr__pfet_01v8 ad=3.1e+11p pd=2.62e+06u as=3.1e+11p ps=2.62e+06u w=1e+06u l=150000u
X12 a_1592_n632# a_1544_n729# a_1500_n632# w_n4520_n851# sky130_fd_pr__pfet_01v8 ad=3.1e+11p pd=2.62e+06u as=3.1e+11p ps=2.62e+06u w=1e+06u l=150000u
X13 a_2222_n632# a_2174_n401# a_2130_n632# w_n4520_n851# sky130_fd_pr__pfet_01v8 ad=3.1e+11p pd=2.62e+06u as=3.1e+11p ps=2.62e+06u w=1e+06u l=150000u
X14 a_540_n100# a_492_131# a_448_n100# w_n4520_n851# sky130_fd_pr__pfet_01v8 ad=3.1e+11p pd=2.62e+06u as=3.1e+11p ps=2.62e+06u w=1e+06u l=150000u
X15 a_2220_n100# a_2172_131# a_2128_n100# w_n4520_n851# sky130_fd_pr__pfet_01v8 ad=3.1e+11p pd=2.62e+06u as=3.1e+11p ps=2.62e+06u w=1e+06u l=150000u
X16 a_n3660_n100# a_n3708_131# a_n3752_n100# w_n4520_n851# sky130_fd_pr__pfet_01v8 ad=3.1e+11p pd=2.62e+06u as=3.1e+11p ps=2.62e+06u w=1e+06u l=150000u
X17 a_n300_n100# a_n348_131# a_n392_n100# w_n4520_n851# sky130_fd_pr__pfet_01v8 ad=3.1e+11p pd=2.62e+06u as=3.1e+11p ps=2.62e+06u w=1e+06u l=150000u
X18 a_3690_n100# a_3642_n197# a_3598_n100# w_n4520_n851# sky130_fd_pr__pfet_01v8 ad=3.1e+11p pd=2.62e+06u as=3.1e+11p ps=2.62e+06u w=1e+06u l=150000u
X19 a_n3028_n632# a_n3076_n729# a_n3120_n632# w_n4520_n851# sky130_fd_pr__pfet_01v8 ad=3.1e+11p pd=2.62e+06u as=3.1e+11p ps=2.62e+06u w=1e+06u l=150000u
X20 a_n2398_n632# a_n2446_n401# a_n2490_n632# w_n4520_n851# sky130_fd_pr__pfet_01v8 ad=3.1e+11p pd=2.62e+06u as=3.1e+11p ps=2.62e+06u w=1e+06u l=150000u
X21 a_4110_n100# a_4062_n197# a_4018_n100# w_n4520_n851# sky130_fd_pr__pfet_01v8 ad=3.1e+11p pd=2.62e+06u as=3.1e+11p ps=2.62e+06u w=1e+06u l=150000u
X22 a_n1558_n632# a_n1606_n401# a_n1650_n632# w_n4520_n851# sky130_fd_pr__pfet_01v8 ad=3.1e+11p pd=2.62e+06u as=3.1e+11p ps=2.62e+06u w=1e+06u l=150000u
X23 a_n1980_n100# a_n2028_131# a_n2072_n100# w_n4520_n851# sky130_fd_pr__pfet_01v8 ad=3.1e+11p pd=2.62e+06u as=3.1e+11p ps=2.62e+06u w=1e+06u l=150000u
X24 a_2010_n100# a_1962_n197# a_1918_n100# w_n4520_n851# sky130_fd_pr__pfet_01v8 ad=3.1e+11p pd=2.62e+06u as=3.1e+11p ps=2.62e+06u w=1e+06u l=150000u
X25 a_3272_n632# a_3224_n729# a_3180_n632# w_n4520_n851# sky130_fd_pr__pfet_01v8 ad=3.1e+11p pd=2.62e+06u as=3.1e+11p ps=2.62e+06u w=1e+06u l=150000u
X26 a_n510_n100# a_n558_n197# a_n602_n100# w_n4520_n851# sky130_fd_pr__pfet_01v8 ad=3.1e+11p pd=2.62e+06u as=3.1e+11p ps=2.62e+06u w=1e+06u l=150000u
X27 a_750_n100# a_702_n197# a_658_n100# w_n4520_n851# sky130_fd_pr__pfet_01v8 ad=3.1e+11p pd=2.62e+06u as=3.1e+11p ps=2.62e+06u w=1e+06u l=150000u
X28 a_752_n632# a_704_n729# a_660_n632# w_n4520_n851# sky130_fd_pr__pfet_01v8 ad=3.1e+11p pd=2.62e+06u as=3.1e+11p ps=2.62e+06u w=1e+06u l=150000u
X29 a_2642_n632# a_2594_n401# a_2550_n632# w_n4520_n851# sky130_fd_pr__pfet_01v8 ad=3.1e+11p pd=2.62e+06u as=3.1e+11p ps=2.62e+06u w=1e+06u l=150000u
X30 a_n3870_n100# a_n3918_n197# a_n3962_n100# w_n4520_n851# sky130_fd_pr__pfet_01v8 ad=3.1e+11p pd=2.62e+06u as=3.1e+11p ps=2.62e+06u w=1e+06u l=150000u
X31 a_3900_n100# a_3852_131# a_3808_n100# w_n4520_n851# sky130_fd_pr__pfet_01v8 ad=3.1e+11p pd=2.62e+06u as=3.1e+11p ps=2.62e+06u w=1e+06u l=150000u
X32 a_n4078_n632# a_n4126_n401# a_n4170_n632# w_n4520_n851# sky130_fd_pr__pfet_01v8 ad=3.1e+11p pd=2.62e+06u as=3.1e+11p ps=2.62e+06u w=1e+06u l=150000u
X33 a_n718_n632# a_n766_n401# a_n810_n632# w_n4520_n851# sky130_fd_pr__pfet_01v8 ad=3.1e+11p pd=2.62e+06u as=3.1e+11p ps=2.62e+06u w=1e+06u l=150000u
X34 a_1802_n632# a_1754_n401# a_1710_n632# w_n4520_n851# sky130_fd_pr__pfet_01v8 ad=3.1e+11p pd=2.62e+06u as=3.1e+11p ps=2.62e+06u w=1e+06u l=150000u
X35 w_n4520_n851# w_n4520_n851# w_n4520_n851# w_n4520_n851# sky130_fd_pr__pfet_01v8 ad=2.48e+12p pd=2.096e+07u as=0p ps=0u w=1e+06u l=150000u
X36 a_n3238_n632# a_n3286_n401# a_n3330_n632# w_n4520_n851# sky130_fd_pr__pfet_01v8 ad=3.1e+11p pd=2.62e+06u as=3.1e+11p ps=2.62e+06u w=1e+06u l=150000u
X37 a_n2608_n632# a_n2656_n729# a_n2700_n632# w_n4520_n851# sky130_fd_pr__pfet_01v8 ad=3.1e+11p pd=2.62e+06u as=3.1e+11p ps=2.62e+06u w=1e+06u l=150000u
X38 a_n2190_n100# a_n2238_n197# a_n2282_n100# w_n4520_n851# sky130_fd_pr__pfet_01v8 ad=3.1e+11p pd=2.62e+06u as=3.1e+11p ps=2.62e+06u w=1e+06u l=150000u
X39 a_n720_n100# a_n768_131# a_n812_n100# w_n4520_n851# sky130_fd_pr__pfet_01v8 ad=3.1e+11p pd=2.62e+06u as=3.1e+11p ps=2.62e+06u w=1e+06u l=150000u
X40 a_960_n100# a_912_131# a_868_n100# w_n4520_n851# sky130_fd_pr__pfet_01v8 ad=3.1e+11p pd=2.62e+06u as=3.1e+11p ps=2.62e+06u w=1e+06u l=150000u
X41 a_n1768_n632# a_n1816_n729# a_n1860_n632# w_n4520_n851# sky130_fd_pr__pfet_01v8 ad=3.1e+11p pd=2.62e+06u as=3.1e+11p ps=2.62e+06u w=1e+06u l=150000u
X42 a_4112_n632# a_4064_n729# a_4020_n632# w_n4520_n851# sky130_fd_pr__pfet_01v8 ad=3.1e+11p pd=2.62e+06u as=3.1e+11p ps=2.62e+06u w=1e+06u l=150000u
X43 a_n4080_n100# a_n4128_131# a_n4172_n100# w_n4520_n851# sky130_fd_pr__pfet_01v8 ad=3.1e+11p pd=2.62e+06u as=3.1e+11p ps=2.62e+06u w=1e+06u l=150000u
X44 a_2852_n632# a_2804_n729# a_2760_n632# w_n4520_n851# sky130_fd_pr__pfet_01v8 ad=3.1e+11p pd=2.62e+06u as=3.1e+11p ps=2.62e+06u w=1e+06u l=150000u
X45 a_3482_n632# a_3434_n401# a_3390_n632# w_n4520_n851# sky130_fd_pr__pfet_01v8 ad=3.1e+11p pd=2.62e+06u as=3.1e+11p ps=2.62e+06u w=1e+06u l=150000u
X46 a_962_n632# a_914_n401# a_870_n632# w_n4520_n851# sky130_fd_pr__pfet_01v8 ad=3.1e+11p pd=2.62e+06u as=3.1e+11p ps=2.62e+06u w=1e+06u l=150000u
X47 a_n2400_n100# a_n2448_131# a_n2492_n100# w_n4520_n851# sky130_fd_pr__pfet_01v8 ad=3.1e+11p pd=2.62e+06u as=3.1e+11p ps=2.62e+06u w=1e+06u l=150000u
X48 a_2430_n100# a_2382_n197# a_2338_n100# w_n4520_n851# sky130_fd_pr__pfet_01v8 ad=3.1e+11p pd=2.62e+06u as=3.1e+11p ps=2.62e+06u w=1e+06u l=150000u
X49 w_n4520_n851# w_n4520_n851# w_n4520_n851# w_n4520_n851# sky130_fd_pr__pfet_01v8 ad=0p pd=0u as=0p ps=0u w=1e+06u l=150000u
X50 a_n928_n632# a_n976_n729# a_n1020_n632# w_n4520_n851# sky130_fd_pr__pfet_01v8 ad=3.1e+11p pd=2.62e+06u as=3.1e+11p ps=2.62e+06u w=1e+06u l=150000u
X51 a_122_n632# a_74_n401# a_30_n632# w_n4520_n851# sky130_fd_pr__pfet_01v8 ad=3.1e+11p pd=2.62e+06u as=3.1e+11p ps=2.62e+06u w=1e+06u l=150000u
X52 a_2012_n632# a_1964_n729# a_1920_n632# w_n4520_n851# sky130_fd_pr__pfet_01v8 ad=3.1e+11p pd=2.62e+06u as=3.1e+11p ps=2.62e+06u w=1e+06u l=150000u
X53 a_n3448_n632# a_n3496_n729# a_n3540_n632# w_n4520_n851# sky130_fd_pr__pfet_01v8 ad=3.1e+11p pd=2.62e+06u as=3.1e+11p ps=2.62e+06u w=1e+06u l=150000u
X54 w_n4520_n851# w_n4520_n851# w_n4520_n851# w_n4520_n851# sky130_fd_pr__pfet_01v8 ad=0p pd=0u as=0p ps=0u w=1e+06u l=150000u
X55 a_n930_n100# a_n978_n197# a_n1022_n100# w_n4520_n851# sky130_fd_pr__pfet_01v8 ad=3.1e+11p pd=2.62e+06u as=3.1e+11p ps=2.62e+06u w=1e+06u l=150000u
X56 a_n2818_n632# a_n2866_n401# a_n2910_n632# w_n4520_n851# sky130_fd_pr__pfet_01v8 ad=3.1e+11p pd=2.62e+06u as=3.1e+11p ps=2.62e+06u w=1e+06u l=150000u
X57 a_n1140_n100# a_n1188_131# a_n1232_n100# w_n4520_n851# sky130_fd_pr__pfet_01v8 ad=3.1e+11p pd=2.62e+06u as=3.1e+11p ps=2.62e+06u w=1e+06u l=150000u
X58 a_1170_n100# a_1122_n197# a_1078_n100# w_n4520_n851# sky130_fd_pr__pfet_01v8 ad=3.1e+11p pd=2.62e+06u as=3.1e+11p ps=2.62e+06u w=1e+06u l=150000u
X59 a_n88_n632# a_n136_n729# a_n180_n632# w_n4520_n851# sky130_fd_pr__pfet_01v8 ad=3.1e+11p pd=2.62e+06u as=3.1e+11p ps=2.62e+06u w=1e+06u l=150000u
X60 w_n4520_n851# w_n4520_n851# w_n4520_n851# w_n4520_n851# sky130_fd_pr__pfet_01v8 ad=0p pd=0u as=0p ps=0u w=1e+06u l=150000u
X61 a_n2610_n100# a_n2658_n197# a_n2702_n100# w_n4520_n851# sky130_fd_pr__pfet_01v8 ad=3.1e+11p pd=2.62e+06u as=3.1e+11p ps=2.62e+06u w=1e+06u l=150000u
X62 a_2640_n100# a_2592_131# a_2548_n100# w_n4520_n851# sky130_fd_pr__pfet_01v8 ad=3.1e+11p pd=2.62e+06u as=3.1e+11p ps=2.62e+06u w=1e+06u l=150000u
X63 a_1172_n632# a_1124_n729# a_1080_n632# w_n4520_n851# sky130_fd_pr__pfet_01v8 ad=3.1e+11p pd=2.62e+06u as=3.1e+11p ps=2.62e+06u w=1e+06u l=150000u
X64 a_3692_n632# a_3644_n729# a_3600_n632# w_n4520_n851# sky130_fd_pr__pfet_01v8 ad=3.1e+11p pd=2.62e+06u as=3.1e+11p ps=2.62e+06u w=1e+06u l=150000u
X65 a_n3030_n100# a_n3078_n197# a_n3122_n100# w_n4520_n851# sky130_fd_pr__pfet_01v8 ad=3.1e+11p pd=2.62e+06u as=3.1e+11p ps=2.62e+06u w=1e+06u l=150000u
X66 a_3060_n100# a_3012_131# a_2968_n100# w_n4520_n851# sky130_fd_pr__pfet_01v8 ad=3.1e+11p pd=2.62e+06u as=3.1e+11p ps=2.62e+06u w=1e+06u l=150000u
X67 a_n1978_n632# a_n2026_n401# a_n2070_n632# w_n4520_n851# sky130_fd_pr__pfet_01v8 ad=3.1e+11p pd=2.62e+06u as=3.1e+11p ps=2.62e+06u w=1e+06u l=150000u
X68 a_n3658_n632# a_n3706_n401# a_n3750_n632# w_n4520_n851# sky130_fd_pr__pfet_01v8 ad=3.1e+11p pd=2.62e+06u as=3.1e+11p ps=2.62e+06u w=1e+06u l=150000u
X69 a_n1138_n632# a_n1186_n401# a_n1230_n632# w_n4520_n851# sky130_fd_pr__pfet_01v8 ad=3.1e+11p pd=2.62e+06u as=3.1e+11p ps=2.62e+06u w=1e+06u l=150000u
X70 a_n1350_n100# a_n1398_n197# a_n1442_n100# w_n4520_n851# sky130_fd_pr__pfet_01v8 ad=3.1e+11p pd=2.62e+06u as=3.1e+11p ps=2.62e+06u w=1e+06u l=150000u
X71 a_1380_n100# a_1332_131# a_1288_n100# w_n4520_n851# sky130_fd_pr__pfet_01v8 ad=3.1e+11p pd=2.62e+06u as=3.1e+11p ps=2.62e+06u w=1e+06u l=150000u
X72 a_n2820_n100# a_n2868_131# a_n2912_n100# w_n4520_n851# sky130_fd_pr__pfet_01v8 ad=3.1e+11p pd=2.62e+06u as=3.1e+11p ps=2.62e+06u w=1e+06u l=150000u
X73 a_2850_n100# a_2802_n197# a_2758_n100# w_n4520_n851# sky130_fd_pr__pfet_01v8 ad=3.1e+11p pd=2.62e+06u as=3.1e+11p ps=2.62e+06u w=1e+06u l=150000u
X74 a_332_n632# a_284_n729# a_240_n632# w_n4520_n851# sky130_fd_pr__pfet_01v8 ad=3.1e+11p pd=2.62e+06u as=3.1e+11p ps=2.62e+06u w=1e+06u l=150000u
X75 a_n3240_n100# a_n3288_131# a_n3332_n100# w_n4520_n851# sky130_fd_pr__pfet_01v8 ad=3.1e+11p pd=2.62e+06u as=3.1e+11p ps=2.62e+06u w=1e+06u l=150000u
X76 a_3270_n100# a_3222_n197# a_3178_n100# w_n4520_n851# sky130_fd_pr__pfet_01v8 ad=3.1e+11p pd=2.62e+06u as=3.1e+11p ps=2.62e+06u w=1e+06u l=150000u
X77 a_n298_n632# a_n346_n401# a_n390_n632# w_n4520_n851# sky130_fd_pr__pfet_01v8 ad=3.1e+11p pd=2.62e+06u as=3.1e+11p ps=2.62e+06u w=1e+06u l=150000u
X78 a_1382_n632# a_1334_n401# a_1290_n632# w_n4520_n851# sky130_fd_pr__pfet_01v8 ad=3.1e+11p pd=2.62e+06u as=3.1e+11p ps=2.62e+06u w=1e+06u l=150000u
X79 a_3902_n632# a_3854_n401# a_3810_n632# w_n4520_n851# sky130_fd_pr__pfet_01v8 ad=3.1e+11p pd=2.62e+06u as=3.1e+11p ps=2.62e+06u w=1e+06u l=150000u
X80 a_n1560_n100# a_n1608_131# a_n1652_n100# w_n4520_n851# sky130_fd_pr__pfet_01v8 ad=3.1e+11p pd=2.62e+06u as=3.1e+11p ps=2.62e+06u w=1e+06u l=150000u
X81 a_120_n100# a_72_131# a_28_n100# w_n4520_n851# sky130_fd_pr__pfet_01v8 ad=3.1e+11p pd=2.62e+06u as=3.1e+11p ps=2.62e+06u w=1e+06u l=150000u
X82 a_1590_n100# a_1542_n197# a_1498_n100# w_n4520_n851# sky130_fd_pr__pfet_01v8 ad=3.1e+11p pd=2.62e+06u as=3.1e+11p ps=2.62e+06u w=1e+06u l=150000u
X83 a_n2188_n632# a_n2236_n729# a_n2280_n632# w_n4520_n851# sky130_fd_pr__pfet_01v8 ad=3.1e+11p pd=2.62e+06u as=3.1e+11p ps=2.62e+06u w=1e+06u l=150000u
C0 w_n4520_n851# a_3642_n197# 0.09fF
C1 a_n508_n632# a_n1020_n632# 0.01fF
C2 a_n180_n632# a_n1348_n632# 0.01fF
C3 a_n390_n632# a_n1138_n632# 0.01fF
C4 a_n88_n632# a_n1440_n632# 0.00fF
C5 a_n600_n632# a_n928_n632# 0.02fF
C6 a_n298_n632# a_n1230_n632# 0.01fF
C7 a_240_n632# a_n508_n632# 0.01fF
C8 a_n182_n100# a_540_n100# 0.01fF
C9 a_3692_n632# a_3644_n729# 0.00fF
C10 a_3224_n729# a_3270_n100# 0.00fF
C11 a_n2072_n100# w_n4520_n851# 0.02fF
C12 a_n2448_131# a_n1398_n197# 0.00fF
C13 a_n810_n632# w_n4520_n851# 0.01fF
C14 a_n4078_n632# a_n3960_n632# 0.07fF
C15 a_n4170_n632# a_n3868_n632# 0.02fF
C16 a_1710_n632# w_n4520_n851# 0.01fF
C17 a_2970_n632# a_3692_n632# 0.01fF
C18 a_2852_n632# a_3810_n632# 0.01fF
C19 a_2760_n632# a_3902_n632# 0.01fF
C20 a_n2282_n100# a_n1442_n100# 0.01fF
C21 a_n2400_n100# a_n1350_n100# 0.01fF
C22 a_n2190_n100# a_n2236_n729# 0.00fF
C23 a_n4128_131# a_n4170_n632# 0.00fF
C24 a_n558_n197# a_n602_n100# 0.00fF
C25 a_n1768_n632# a_n1440_n632# 0.02fF
C26 a_n1650_n632# a_n1558_n632# 0.09fF
C27 a_492_131# a_448_n100# 0.00fF
C28 a_3060_n100# w_n4520_n851# 0.03fF
C29 a_n1980_n100# a_n3450_n100# 0.00fF
C30 a_870_n632# a_n600_n632# 0.00fF
C31 a_n2070_n632# a_n1020_n632# 0.01fF
C32 a_n1860_n632# a_n1230_n632# 0.01fF
C33 a_n1818_n197# a_n3078_n197# 0.00fF
C34 a_n2188_n632# a_n928_n632# 0.00fF
C35 a_n1978_n632# a_n1138_n632# 0.01fF
C36 a_870_n632# a_1920_n632# 0.01fF
C37 a_4020_n632# a_3062_n632# 0.01fF
C38 a_n1818_n197# a_n768_131# 0.00fF
C39 a_2430_n100# a_2548_n100# 0.07fF
C40 a_2338_n100# a_2640_n100# 0.02fF
C41 a_120_n100# a_n1442_n100# 0.00fF
C42 a_n346_n401# a_n1186_n401# 0.01fF
C43 a_n1442_n100# a_n720_n100# 0.01fF
C44 a_n1140_n100# a_n1022_n100# 0.07fF
C45 a_n1232_n100# a_n930_n100# 0.02fF
C46 a_n1350_n100# a_n812_n100# 0.01fF
C47 a_1708_n100# a_868_n100# 0.01fF
C48 a_3222_n197# a_1752_131# 0.00fF
C49 a_4020_n632# a_4064_n729# 0.00fF
C50 w_n4520_n851# a_n2398_n632# 0.01fF
C51 w_n4520_n851# a_2432_n632# 0.01fF
C52 a_3224_n729# a_3854_n401# 0.00fF
C53 a_332_n632# a_n718_n632# 0.01fF
C54 a_3644_n729# a_3434_n401# 0.00fF
C55 a_n1186_n401# a_n766_n401# 0.01fF
C56 a_332_n632# a_1802_n632# 0.00fF
C57 a_n392_n100# a_658_n100# 0.01fF
C58 a_1918_n100# a_2128_n100# 0.03fF
C59 a_1800_n100# a_2220_n100# 0.02fF
C60 a_3012_131# a_2382_n197# 0.00fF
C61 a_2220_n100# a_3388_n100# 0.01fF
C62 a_2128_n100# a_3480_n100# 0.00fF
C63 a_2010_n100# a_3598_n100# 0.00fF
C64 a_n3330_n632# a_n2398_n632# 0.01fF
C65 a_n3448_n632# a_n2280_n632# 0.01fF
C66 a_n3658_n632# a_n2070_n632# 0.00fF
C67 a_448_n100# a_n1022_n100# 0.00fF
C68 a_n3028_n632# a_n2700_n632# 0.02fF
C69 a_3480_n100# a_3690_n100# 0.03fF
C70 a_3388_n100# a_3808_n100# 0.02fF
C71 a_3270_n100# a_3900_n100# 0.01fF
C72 a_n3120_n632# a_n2608_n632# 0.01fF
C73 a_n3540_n632# a_n2188_n632# 0.00fF
C74 a_n3238_n632# a_n2490_n632# 0.01fF
C75 a_1122_n197# a_1078_n100# 0.00fF
C76 a_2172_131# a_1752_131# 0.01fF
C77 a_2592_131# a_1332_131# 0.00fF
C78 a_n2190_n100# a_n1560_n100# 0.01fF
C79 a_n2072_n100# a_n1652_n100# 0.02fF
C80 a_n1980_n100# a_n1770_n100# 0.03fF
C81 a_4112_n632# a_2970_n632# 0.01fF
C82 a_n3708_131# a_n3498_n197# 0.00fF
C83 a_1754_n401# a_2384_n729# 0.00fF
C84 a_2594_n401# a_1544_n729# 0.00fF
C85 a_2174_n401# a_1964_n729# 0.00fF
C86 a_n348_131# a_n1398_n197# 0.00fF
C87 a_238_n100# w_n4520_n851# 0.02fF
C88 a_3432_131# a_4062_n197# 0.00fF
C89 a_n810_n632# a_n390_n632# 0.02fF
C90 a_n718_n632# a_n508_n632# 0.03fF
C91 a_1382_n632# a_n88_n632# 0.00fF
C92 a_1802_n632# a_2012_n632# 0.03fF
C93 a_n1980_n100# a_n510_n100# 0.00fF
C94 a_n1560_n100# a_n602_n100# 0.01fF
C95 a_1172_n632# a_1500_n632# 0.02fF
C96 a_n2820_n100# a_n2492_n100# 0.02fF
C97 a_n2702_n100# a_n2610_n100# 0.09fF
C98 a_962_n632# a_1710_n632# 0.01fF
C99 a_238_n100# a_330_n100# 0.09fF
C100 a_960_n100# a_1170_n100# 0.03fF
C101 a_1918_n100# w_n4520_n851# 0.02fF
C102 a_2338_n100# a_1170_n100# 0.01fF
C103 a_2430_n100# a_1078_n100# 0.00fF
C104 w_n4520_n851# a_3480_n100# 0.04fF
C105 a_1500_n632# a_3062_n632# 0.00fF
C106 a_n3030_n100# a_n3870_n100# 0.01fF
C107 a_n3122_n100# a_n3752_n100# 0.01fF
C108 a_n2702_n100# a_n4172_n100# 0.00fF
C109 a_n3240_n100# a_n3660_n100# 0.02fF
C110 a_n3332_n100# a_n3542_n100# 0.03fF
C111 a_n2912_n100# a_n3962_n100# 0.01fF
C112 a_n2820_n100# a_n4080_n100# 0.00fF
C113 a_3644_n729# a_2384_n729# 0.00fF
C114 a_1918_n100# a_330_n100# 0.00fF
C115 a_1498_n100# a_960_n100# 0.01fF
C116 a_1498_n100# a_2338_n100# 0.01fF
C117 a_1380_n100# a_2430_n100# 0.01fF
C118 a_n4128_131# a_n3288_131# 0.01fF
C119 w_n4520_n851# a_n928_n632# 0.01fF
C120 a_450_n632# a_1592_n632# 0.01fF
C121 a_n2238_n197# a_n1818_n197# 0.01fF
C122 a_3900_n100# a_3854_n401# 0.00fF
C123 a_448_n100# a_1078_n100# 0.01fF
C124 a_540_n100# a_960_n100# 0.02fF
C125 a_n182_n100# a_120_n100# 0.02fF
C126 a_658_n100# a_868_n100# 0.03fF
C127 a_n300_n100# a_n602_n100# 0.02fF
C128 a_n182_n100# a_n720_n100# 0.01fF
C129 a_n90_n100# a_n812_n100# 0.01fF
C130 a_n3868_n632# a_n2818_n632# 0.01fF
C131 a_n3750_n632# a_n2910_n632# 0.01fF
C132 a_2174_n401# a_2222_n632# 0.00fF
C133 a_2172_131# a_702_n197# 0.00fF
C134 a_n2910_n632# a_n1348_n632# 0.00fF
C135 a_n2818_n632# a_n1440_n632# 0.00fF
C136 a_n2868_131# a_n2866_n401# 0.01fF
C137 a_n810_n632# a_n1978_n632# 0.01fF
C138 a_n718_n632# a_n2070_n632# 0.00fF
C139 a_n600_n632# a_n2188_n632# 0.00fF
C140 a_1380_n100# a_448_n100# 0.01fF
C141 a_282_n197# a_1122_n197# 0.01fF
C142 a_1802_n632# a_2760_n632# 0.01fF
C143 a_1710_n632# a_2852_n632# 0.01fF
C144 a_2012_n632# a_2550_n632# 0.01fF
C145 a_1592_n632# a_2970_n632# 0.00fF
C146 a_1920_n632# a_2642_n632# 0.01fF
C147 a_122_n632# a_n88_n632# 0.03fF
C148 a_962_n632# a_2432_n632# 0.00fF
C149 a_1172_n632# a_2222_n632# 0.01fF
C150 a_n2868_131# a_n2658_n197# 0.00fF
C151 a_704_n729# a_1544_n729# 0.01fF
C152 a_2222_n632# a_3062_n632# 0.01fF
C153 a_2130_n632# a_3180_n632# 0.01fF
C154 a_n2190_n100# a_n3030_n100# 0.01fF
C155 a_n1862_n100# a_n3332_n100# 0.00fF
C156 a_n2072_n100# a_n3122_n100# 0.01fF
C157 a_n2400_n100# a_n2820_n100# 0.02fF
C158 a_n1980_n100# a_n3240_n100# 0.00fF
C159 a_n2282_n100# a_n2912_n100# 0.01fF
C160 w_n4520_n851# a_914_n401# 0.10fF
C161 a_2968_n100# a_2970_n632# 0.00fF
C162 w_n4520_n851# a_n3540_n632# 0.03fF
C163 w_n4520_n851# a_n3496_n729# 0.12fF
C164 a_n3540_n632# a_n3330_n632# 0.03fF
C165 a_n3658_n632# a_n3238_n632# 0.02fF
C166 a_n4170_n632# a_n2700_n632# 0.00fF
C167 a_1080_n632# a_1500_n632# 0.02fF
C168 a_870_n632# w_n4520_n851# 0.01fF
C169 a_n2700_n632# a_n1768_n632# 0.01fF
C170 w_n4520_n851# a_n4126_n401# 0.12fF
C171 a_1800_n100# a_1752_131# 0.00fF
C172 w_n4520_n851# a_n3542_n100# 0.04fF
C173 a_1962_n197# a_492_131# 0.00fF
C174 a_1800_n100# a_1754_n401# 0.00fF
C175 a_n2492_n100# a_n1140_n100# 0.00fF
C176 a_n2610_n100# a_n1022_n100# 0.00fF
C177 a_n3448_n632# a_n3450_n100# 0.00fF
C178 a_n2490_n632# a_n1860_n632# 0.01fF
C179 a_n2398_n632# a_n1978_n632# 0.02fF
C180 a_1122_n197# a_2382_n197# 0.00fF
C181 a_1542_n197# a_1962_n197# 0.01fF
C182 a_n2280_n632# a_n2070_n632# 0.03fF
C183 a_n3496_n729# a_n2656_n729# 0.01fF
C184 a_2550_n632# a_2760_n632# 0.03fF
C185 a_752_n632# a_n180_n632# 0.01fF
C186 a_2432_n632# a_2852_n632# 0.02fF
C187 a_2340_n632# a_2970_n632# 0.01fF
C188 a_n3286_n401# a_n3496_n729# 0.00fF
C189 a_2010_n100# a_2012_n632# 0.00fF
C190 a_n2866_n401# a_n3916_n729# 0.00fF
C191 a_n3706_n401# a_n3076_n729# 0.00fF
C192 a_n4126_n401# a_n2656_n729# 0.00fF
C193 a_752_n632# a_1172_n632# 0.02fF
C194 a_n90_n100# a_1288_n100# 0.00fF
C195 a_542_n632# a_1382_n632# 0.01fF
C196 a_n392_n100# a_238_n100# 0.01fF
C197 a_n4126_n401# a_n3286_n401# 0.01fF
C198 a_28_n100# a_n1022_n100# 0.01fF
C199 a_3272_n632# a_3600_n632# 0.02fF
C200 a_3180_n632# a_3692_n632# 0.01fF
C201 a_3390_n632# a_3482_n632# 0.09fF
C202 a_3062_n632# a_3810_n632# 0.01fF
C203 a_2220_n100# a_3178_n100# 0.01fF
C204 a_2128_n100# a_750_n100# 0.00fF
C205 a_3178_n100# a_3808_n100# 0.01fF
C206 a_3060_n100# a_3900_n100# 0.01fF
C207 a_2968_n100# a_4018_n100# 0.01fF
C208 a_2850_n100# a_4110_n100# 0.00fF
C209 a_240_n632# a_284_n729# 0.00fF
C210 a_n88_n632# a_n1230_n632# 0.01fF
C211 a_n390_n632# a_n928_n632# 0.01fF
C212 a_n298_n632# a_n1020_n632# 0.01fF
C213 a_n180_n632# a_n1138_n632# 0.01fF
C214 a_240_n632# a_n298_n632# 0.01fF
C215 a_n3288_131# a_n3708_131# 0.01fF
C216 a_1080_n632# a_2222_n632# 0.01fF
C217 a_n1608_131# a_n978_n197# 0.00fF
C218 a_n978_n197# a_n976_n729# 0.01fF
C219 a_n1862_n100# w_n4520_n851# 0.02fF
C220 a_2430_n100# a_2382_n197# 0.00fF
C221 a_n1608_131# w_n4520_n851# 0.12fF
C222 w_n4520_n851# a_n976_n729# 0.12fF
C223 a_n600_n632# w_n4520_n851# 0.01fF
C224 a_914_n401# a_1334_n401# 0.01fF
C225 a_n4078_n632# a_n3750_n632# 0.02fF
C226 a_n3960_n632# a_n3868_n632# 0.09fF
C227 a_1920_n632# w_n4520_n851# 0.01fF
C228 a_2970_n632# a_3902_n632# 0.01fF
C229 a_914_n401# a_n136_n729# 0.00fF
C230 a_n346_n401# a_1124_n729# 0.00fF
C231 a_542_n632# a_2130_n632# 0.00fF
C232 a_n2072_n100# a_n1442_n100# 0.01fF
C233 a_n2190_n100# a_n1350_n100# 0.01fF
C234 a_n2282_n100# a_n1232_n100# 0.01fF
C235 a_n2400_n100# a_n1140_n100# 0.00fF
C236 a_450_n632# a_n1020_n632# 0.00fF
C237 a_n1558_n632# a_n1440_n632# 0.07fF
C238 a_n1650_n632# a_n1348_n632# 0.02fF
C239 a_n1768_n632# a_n1230_n632# 0.01fF
C240 a_240_n632# a_450_n632# 0.03fF
C241 a_122_n632# a_542_n632# 0.02fF
C242 a_2594_n401# a_3434_n401# 0.01fF
C243 a_962_n632# a_914_n401# 0.00fF
C244 w_n4520_n851# a_750_n100# 0.02fF
C245 a_1122_n197# a_912_131# 0.00fF
C246 a_n2072_n100# a_n2028_131# 0.00fF
C247 a_870_n632# a_n390_n632# 0.00fF
C248 a_n1978_n632# a_n928_n632# 0.01fF
C249 a_n1860_n632# a_n1020_n632# 0.01fF
C250 a_n346_n401# a_74_n401# 0.01fF
C251 a_4112_n632# a_3180_n632# 0.01fF
C252 a_4020_n632# a_3272_n632# 0.01fF
C253 a_330_n100# a_750_n100# 0.02fF
C254 a_238_n100# a_868_n100# 0.01fF
C255 a_120_n100# a_960_n100# 0.01fF
C256 a_28_n100# a_1078_n100# 0.01fF
C257 a_752_n632# a_1080_n632# 0.02fF
C258 a_870_n632# a_962_n632# 0.09fF
C259 a_2548_n100# a_2640_n100# 0.09fF
C260 a_2430_n100# a_2758_n100# 0.02fF
C261 a_2338_n100# a_2850_n100# 0.01fF
C262 a_n2448_131# a_n2658_n197# 0.00fF
C263 a_120_n100# a_n1232_n100# 0.00fF
C264 a_74_n401# a_n766_n401# 0.01fF
C265 a_n1022_n100# a_n930_n100# 0.09fF
C266 a_n1140_n100# a_n812_n100# 0.02fF
C267 a_n1232_n100# a_n720_n100# 0.01fF
C268 a_n1350_n100# a_n602_n100# 0.01fF
C269 a_1918_n100# a_868_n100# 0.01fF
C270 a_1380_n100# a_28_n100# 0.00fF
C271 w_n4520_n851# a_n2188_n632# 0.01fF
C272 a_30_n632# a_n1440_n632# 0.00fF
C273 w_n4520_n851# a_2642_n632# 0.02fF
C274 a_332_n632# a_n508_n632# 0.01fF
C275 a_4064_n729# a_3854_n401# 0.00fF
C276 a_2010_n100# a_2220_n100# 0.03fF
C277 a_n182_n100# a_658_n100# 0.01fF
C278 a_3012_131# a_3222_n197# 0.00fF
C279 a_2220_n100# a_3598_n100# 0.00fF
C280 a_2128_n100# a_3690_n100# 0.00fF
C281 a_n3540_n632# a_n1978_n632# 0.00fF
C282 a_n3330_n632# a_n2188_n632# 0.01fF
C283 a_n3238_n632# a_n2280_n632# 0.01fF
C284 a_n3448_n632# a_n2070_n632# 0.00fF
C285 a_448_n100# a_n812_n100# 0.00fF
C286 a_3598_n100# a_3808_n100# 0.03fF
C287 a_3480_n100# a_3900_n100# 0.02fF
C288 a_3388_n100# a_4018_n100# 0.01fF
C289 a_3270_n100# a_4110_n100# 0.01fF
C290 a_n2818_n632# a_n2700_n632# 0.07fF
C291 a_n3120_n632# a_n2398_n632# 0.01fF
C292 a_n2910_n632# a_n2608_n632# 0.02fF
C293 a_n3028_n632# a_n2490_n632# 0.01fF
C294 a_n1188_131# a_n1140_n100# 0.00fF
C295 a_n1980_n100# a_n1560_n100# 0.02fF
C296 a_n1862_n100# a_n1652_n100# 0.03fF
C297 a_n1186_n401# a_n1188_131# 0.01fF
C298 a_n4128_131# a_n4172_n100# 0.00fF
C299 a_n1652_n100# a_n1608_131# 0.00fF
C300 a_n2280_n632# a_n2236_n729# 0.00fF
C301 a_3012_131# a_2172_131# 0.01fF
C302 a_3014_n401# a_1964_n729# 0.00fF
C303 a_2594_n401# a_2384_n729# 0.00fF
C304 a_n2446_n401# a_n2398_n632# 0.00fF
C305 a_n3332_n100# w_n4520_n851# 0.03fF
C306 a_1498_n100# a_1542_n197# 0.00fF
C307 a_3222_n197# a_3180_n632# 0.00fF
C308 a_n348_131# a_n558_n197# 0.00fF
C309 a_n976_n729# a_n136_n729# 0.01fF
C310 a_492_131# a_540_n100# 0.00fF
C311 a_1802_n632# a_1754_n401# 0.00fF
C312 w_n4520_n851# a_n3918_n197# 0.11fF
C313 a_n508_n632# a_n556_n729# 0.00fF
C314 a_n3332_n100# a_n3330_n632# 0.00fF
C315 a_n810_n632# a_n180_n632# 0.01fF
C316 a_n718_n632# a_n298_n632# 0.02fF
C317 a_n600_n632# a_n390_n632# 0.03fF
C318 a_n1862_n100# a_n392_n100# 0.00fF
C319 a_2968_n100# a_3012_131# 0.00fF
C320 a_n1770_n100# a_n510_n100# 0.00fF
C321 a_962_n632# a_n600_n632# 0.00fF
C322 a_n2610_n100# a_n2492_n100# 0.07fF
C323 a_962_n632# a_1920_n632# 0.01fF
C324 a_1172_n632# a_1710_n632# 0.01fF
C325 a_2128_n100# w_n4520_n851# 0.02fF
C326 a_2430_n100# a_1288_n100# 0.01fF
C327 a_2548_n100# a_1170_n100# 0.00fF
C328 a_2640_n100# a_1078_n100# 0.00fF
C329 w_n4520_n851# a_3690_n100# 0.04fF
C330 a_1710_n632# a_3062_n632# 0.00fF
C331 a_1592_n632# a_3180_n632# 0.00fF
C332 a_4020_n632# a_4062_n197# 0.00fF
C333 a_n510_n100# a_n556_n729# 0.00fF
C334 a_n348_131# a_72_131# 0.01fF
C335 a_n3122_n100# a_n3542_n100# 0.02fF
C336 a_n3030_n100# a_n3660_n100# 0.01fF
C337 a_n768_131# a_n720_n100# 0.00fF
C338 a_n2610_n100# a_n4080_n100# 0.00fF
C339 a_n2912_n100# a_n3752_n100# 0.01fF
C340 a_n2820_n100# a_n3870_n100# 0.01fF
C341 a_n3240_n100# a_n3450_n100# 0.03fF
C342 a_n2702_n100# a_n3962_n100# 0.00fF
C343 a_n508_n632# a_n510_n100# 0.00fF
C344 a_870_n632# a_868_n100# 0.00fF
C345 a_1708_n100# a_960_n100# 0.01fF
C346 a_n4172_n100# a_n4080_n100# 0.09fF
C347 a_3060_n100# a_3062_n632# 0.00fF
C348 a_1708_n100# a_2338_n100# 0.01fF
C349 a_1590_n100# a_2430_n100# 0.01fF
C350 a_1498_n100# a_2548_n100# 0.01fF
C351 a_1380_n100# a_2640_n100# 0.00fF
C352 a_2338_n100# a_3270_n100# 0.01fF
C353 a_450_n632# a_n718_n632# 0.01fF
C354 a_450_n632# a_1802_n632# 0.00fF
C355 a_448_n100# a_1288_n100# 0.01fF
C356 a_n1398_n197# a_n558_n197# 0.01fF
C357 a_n392_n100# a_750_n100# 0.01fF
C358 a_3432_131# a_2382_n197# 0.00fF
C359 a_n90_n100# a_n602_n100# 0.01fF
C360 a_540_n100# a_n1022_n100# 0.00fF
C361 a_2592_131# a_1752_131# 0.01fF
C362 a_n2818_n632# a_n1230_n632# 0.00fF
C363 w_n4520_n851# a_n978_n197# 0.10fF
C364 a_1590_n100# a_448_n100# 0.01fF
C365 a_n508_n632# a_n2070_n632# 0.00fF
C366 a_n718_n632# a_n1860_n632# 0.01fF
C367 a_n600_n632# a_n1978_n632# 0.00fF
C368 a_1802_n632# a_2970_n632# 0.01fF
C369 a_1920_n632# a_2852_n632# 0.01fF