* NGSPICE file created from comparator_v2.ext - technology: sky130A

.subckt pmos_VCQUSW a_n810_n632# a_1802_n632# a_n4080_n100# a_2640_n100#
+ a_2010_n100# a_3852_131# a_n3750_n632# a_n3120_n632# a_3600_n632# a_2594_n401# a_n88_n632#
+ a_n2866_n401# a_n2912_n100# a_n718_n632# a_n556_n729# a_2548_n100# a_n182_n100#
+ a_n3658_n632# a_n3028_n632# a_n3496_n729# a_2012_n632# a_2642_n632# a_n1140_n100#
+ a_n1770_n100# a_n1398_n197# a_2172_131# a_n812_n100# a_n4128_131# a_3224_n729# a_n766_n401#
+ a_3480_n100# a_n3122_n100# a_n3752_n100# a_240_n632# a_870_n632# a_n2448_131# a_3388_n100#
+ a_3434_n401# a_n3706_n401# a_3482_n632# a_492_131# a_1500_n632# a_4064_n729# a_n1650_n632#
+ a_n1020_n632# a_n768_131# a_n2238_n197# a_n1558_n632# a_n2610_n100# a_n1396_n729#
+ w_n4520_n851# a_750_n100# a_120_n100# a_1124_n729# a_n2490_n632# a_2340_n632# a_2970_n632#
+ a_1380_n100# a_658_n100# a_n510_n100# a_n1022_n100# a_n1652_n100# a_n138_n197# a_1288_n100#
+ a_n3450_n100# a_n3078_n197# a_n2398_n632# a_122_n632# a_752_n632# a_1334_n401# a_74_n401#
+ a_702_n197# a_1382_n632# a_n1606_n401# a_1962_n197# a_3012_131# a_n390_n632# a_1918_n100#
+ a_28_n100# a_3180_n632# a_n2492_n100# a_1332_131# a_n2236_n729# a_n298_n632# a_3810_n632#
+ a_2850_n100# a_2220_n100# a_n3960_n632# a_n3330_n632# a_2174_n401# a_n1608_131#
+ a_n928_n632# a_n2446_n401# a_n136_n729# a_n3868_n632# a_n3238_n632# a_2758_n100#
+ a_2128_n100# a_n392_n100# a_n3076_n729# a_2802_n197# a_2222_n632# a_2852_n632# a_n1350_n100#
+ a_n1980_n100# a_n4170_n632# a_4020_n632# a_n346_n401# a_3690_n100# a_3060_n100#
+ a_n3332_n100# a_n3962_n100# a_2592_131# a_450_n632# a_n3286_n401# a_3598_n100# a_n4078_n632#
+ a_1080_n632# a_3014_n401# a_n2868_131# a_3062_n632# a_3692_n632# a_n2190_n100# a_3642_n197#
+ a_n1860_n632# a_n1230_n632# a_1710_n632# a_n4172_n100# a_n2820_n100# a_n1768_n632#
+ a_n1138_n632# a_n1188_131# a_704_n729# a_n4126_n401# a_960_n100# a_330_n100# a_1964_n729#
+ a_1590_n100# a_282_n197# a_n2070_n632# a_2550_n632# a_n90_n100# a_n978_n197# a_n1186_n401#
+ a_868_n100# a_238_n100# a_n720_n100# a_n1232_n100# a_n1862_n100# a_914_n401# a_1498_n100#
+ a_n3030_n100# a_n3660_n100# a_n2700_n632# a_332_n632# a_962_n632# a_1542_n197# a_1592_n632#
+ a_n3918_n197# a_n2608_n632# a_3390_n632# a_n2072_n100# a_3432_131# a_n600_n632#
+ a_1752_131# a_2804_n729# a_n3540_n632# a_2430_n100# a_n2702_n100# a_n3708_131# a_n508_n632#
+ a_n2026_n401# a_2382_n197# a_2968_n100# a_2338_n100# a_n976_n729# a_n3448_n632#
+ a_n1560_n100# a_2432_n632# a_3644_n729# a_3270_n100# a_n602_n100# a_n2028_131# a_n3916_n729#
+ a_n3542_n100# a_660_n632# a_n1818_n197# a_3178_n100# a_1290_n632# a_3900_n100# a_3854_n401#
+ a_3222_n197# a_3272_n632# a_n348_131# a_30_n632# a_3808_n100# a_n1440_n632# a_1920_n632#
+ a_284_n729# a_n2658_n197# a_3902_n632# a_n2400_n100# a_n1978_n632# a_n1348_n632#
+ a_n3288_131# a_4110_n100# a_494_n401# a_540_n100# a_4062_n197# a_4018_n100# a_1544_n729#
+ a_n2280_n632# a_2130_n632# a_2760_n632# a_1170_n100# a_72_131# a_n300_n100# a_n930_n100#
+ a_n1442_n100# a_n558_n197# a_n1816_n729# a_448_n100# a_n3240_n100# a_n3870_n100#
+ a_n3498_n197# a_n2188_n632# a_4112_n632# a_1078_n100# a_1754_n401# a_1800_n100#
+ a_n2910_n632# a_542_n632# a_1122_n197# a_n180_n632# a_1172_n632# a_2384_n729# a_n2818_n632#
+ a_1708_n100# a_912_131# a_n2656_n729# a_n2282_n100#
M0 a_n90_n100# a_n138_n197# a_n182_n100# w_n4520_n851# pmos ad=3.1e+11p pd=2.62e+06u as=3.1e+11p ps=2.62e+06u w=1 l=0.15
M1 a_330_n100# a_282_n197# a_238_n100# w_n4520_n851# pmos ad=3.1e+11p pd=2.62e+06u as=3.1e+11p ps=2.62e+06u w=1 l=0.15
M2 a_n3868_n632# a_n3916_n729# a_n3960_n632# w_n4520_n851# pmos ad=3.1e+11p pd=2.62e+06u as=3.1e+11p ps=2.62e+06u w=1 l=0.15
M3 a_n1348_n632# a_n1396_n729# a_n1440_n632# w_n4520_n851# pmos ad=3.1e+11p pd=2.62e+06u as=3.1e+11p ps=2.62e+06u w=1 l=0.15
M4 a_n3450_n100# a_n3498_n197# a_n3542_n100# w_n4520_n851# pmos ad=3.1e+11p pd=2.62e+06u as=3.1e+11p ps=2.62e+06u w=1 l=0.15
M5 a_3480_n100# a_3432_131# a_3388_n100# w_n4520_n851# pmos ad=3.1e+11p pd=2.62e+06u as=3.1e+11p ps=2.62e+06u w=1 l=0.15
M6 a_3062_n632# a_3014_n401# a_2970_n632# w_n4520_n851# pmos ad=3.1e+11p pd=2.62e+06u as=3.1e+11p ps=2.62e+06u w=1 l=0.15
M7 a_542_n632# a_494_n401# a_450_n632# w_n4520_n851# pmos ad=3.1e+11p pd=2.62e+06u as=3.1e+11p ps=2.62e+06u w=1 l=0.15
M8 a_2432_n632# a_2384_n729# a_2340_n632# w_n4520_n851# pmos ad=3.1e+11p pd=2.62e+06u as=3.1e+11p ps=2.62e+06u w=1 l=0.15
M9 a_n1770_n100# a_n1818_n197# a_n1862_n100# w_n4520_n851# pmos ad=3.1e+11p pd=2.62e+06u as=3.1e+11p ps=2.62e+06u w=1 l=0.15
M10 a_1800_n100# a_1752_131# a_1708_n100# w_n4520_n851# pmos ad=3.1e+11p pd=2.62e+06u as=3.1e+11p ps=2.62e+06u w=1 l=0.15
M11 a_n508_n632# a_n556_n729# a_n600_n632# w_n4520_n851# pmos ad=3.1e+11p pd=2.62e+06u as=3.1e+11p ps=2.62e+06u w=1 l=0.15
M12 a_1592_n632# a_1544_n729# a_1500_n632# w_n4520_n851# pmos ad=3.1e+11p pd=2.62e+06u as=3.1e+11p ps=2.62e+06u w=1 l=0.15
M13 a_2222_n632# a_2174_n401# a_2130_n632# w_n4520_n851# pmos ad=3.1e+11p pd=2.62e+06u as=3.1e+11p ps=2.62e+06u w=1 l=0.15
M14 a_540_n100# a_492_131# a_448_n100# w_n4520_n851# pmos ad=3.1e+11p pd=2.62e+06u as=3.1e+11p ps=2.62e+06u w=1 l=0.15
M15 a_2220_n100# a_2172_131# a_2128_n100# w_n4520_n851# pmos ad=3.1e+11p pd=2.62e+06u as=3.1e+11p ps=2.62e+06u w=1 l=0.15
M16 a_n3660_n100# a_n3708_131# a_n3752_n100# w_n4520_n851# pmos ad=3.1e+11p pd=2.62e+06u as=3.1e+11p ps=2.62e+06u w=1 l=0.15
M17 a_n300_n100# a_n348_131# a_n392_n100# w_n4520_n851# pmos ad=3.1e+11p pd=2.62e+06u as=3.1e+11p ps=2.62e+06u w=1 l=0.15
M18 a_3690_n100# a_3642_n197# a_3598_n100# w_n4520_n851# pmos ad=3.1e+11p pd=2.62e+06u as=3.1e+11p ps=2.62e+06u w=1 l=0.15
M19 a_n3028_n632# a_n3076_n729# a_n3120_n632# w_n4520_n851# pmos ad=3.1e+11p pd=2.62e+06u as=3.1e+11p ps=2.62e+06u w=1 l=0.15
M20 a_n2398_n632# a_n2446_n401# a_n2490_n632# w_n4520_n851# pmos ad=3.1e+11p pd=2.62e+06u as=3.1e+11p ps=2.62e+06u w=1 l=0.15
M21 a_4110_n100# a_4062_n197# a_4018_n100# w_n4520_n851# pmos ad=3.1e+11p pd=2.62e+06u as=3.1e+11p ps=2.62e+06u w=1 l=0.15
M22 a_n1558_n632# a_n1606_n401# a_n1650_n632# w_n4520_n851# pmos ad=3.1e+11p pd=2.62e+06u as=3.1e+11p ps=2.62e+06u w=1 l=0.15
M23 a_n1980_n100# a_n2028_131# a_n2072_n100# w_n4520_n851# pmos ad=3.1e+11p pd=2.62e+06u as=3.1e+11p ps=2.62e+06u w=1 l=0.15
M24 a_2010_n100# a_1962_n197# a_1918_n100# w_n4520_n851# pmos ad=3.1e+11p pd=2.62e+06u as=3.1e+11p ps=2.62e+06u w=1 l=0.15
M25 a_3272_n632# a_3224_n729# a_3180_n632# w_n4520_n851# pmos ad=3.1e+11p pd=2.62e+06u as=3.1e+11p ps=2.62e+06u w=1 l=0.15
M26 a_n510_n100# a_n558_n197# a_n602_n100# w_n4520_n851# pmos ad=3.1e+11p pd=2.62e+06u as=3.1e+11p ps=2.62e+06u w=1 l=0.15
M27 a_750_n100# a_702_n197# a_658_n100# w_n4520_n851# pmos ad=3.1e+11p pd=2.62e+06u as=3.1e+11p ps=2.62e+06u w=1 l=0.15
M28 a_752_n632# a_704_n729# a_660_n632# w_n4520_n851# pmos ad=3.1e+11p pd=2.62e+06u as=3.1e+11p ps=2.62e+06u w=1 l=0.15
M29 a_2642_n632# a_2594_n401# a_2550_n632# w_n4520_n851# pmos ad=3.1e+11p pd=2.62e+06u as=3.1e+11p ps=2.62e+06u w=1 l=0.15
M30 a_n3870_n100# a_n3918_n197# a_n3962_n100# w_n4520_n851# pmos ad=3.1e+11p pd=2.62e+06u as=3.1e+11p ps=2.62e+06u w=1 l=0.15
M31 a_3900_n100# a_3852_131# a_3808_n100# w_n4520_n851# pmos ad=3.1e+11p pd=2.62e+06u as=3.1e+11p ps=2.62e+06u w=1 l=0.15
M32 a_n4078_n632# a_n4126_n401# a_n4170_n632# w_n4520_n851# pmos ad=3.1e+11p pd=2.62e+06u as=3.1e+11p ps=2.62e+06u w=1 l=0.15
M33 a_n718_n632# a_n766_n401# a_n810_n632# w_n4520_n851# pmos ad=3.1e+11p pd=2.62e+06u as=3.1e+11p ps=2.62e+06u w=1 l=0.15
M34 a_1802_n632# a_1754_n401# a_1710_n632# w_n4520_n851# pmos ad=3.1e+11p pd=2.62e+06u as=3.1e+11p ps=2.62e+06u w=1 l=0.15
M35 w_n4520_n851# w_n4520_n851# w_n4520_n851# w_n4520_n851# pmos ad=2.48e+12p pd=2.096e+07u as=0p ps=0u w=1 l=0.15
M36 a_n3238_n632# a_n3286_n401# a_n3330_n632# w_n4520_n851# pmos ad=3.1e+11p pd=2.62e+06u as=3.1e+11p ps=2.62e+06u w=1 l=0.15
M37 a_n2608_n632# a_n2656_n729# a_n2700_n632# w_n4520_n851# pmos ad=3.1e+11p pd=2.62e+06u as=3.1e+11p ps=2.62e+06u w=1 l=0.15
M38 a_n2190_n100# a_n2238_n197# a_n2282_n100# w_n4520_n851# pmos ad=3.1e+11p pd=2.62e+06u as=3.1e+11p ps=2.62e+06u w=1 l=0.15
M39 a_n720_n100# a_n768_131# a_n812_n100# w_n4520_n851# pmos ad=3.1e+11p pd=2.62e+06u as=3.1e+11p ps=2.62e+06u w=1 l=0.15
M40 a_960_n100# a_912_131# a_868_n100# w_n4520_n851# pmos ad=3.1e+11p pd=2.62e+06u as=3.1e+11p ps=2.62e+06u w=1 l=0.15
M41 a_n1768_n632# a_n1816_n729# a_n1860_n632# w_n4520_n851# pmos ad=3.1e+11p pd=2.62e+06u as=3.1e+11p ps=2.62e+06u w=1 l=0.15
M42 a_4112_n632# a_4064_n729# a_4020_n632# w_n4520_n851# pmos ad=3.1e+11p pd=2.62e+06u as=3.1e+11p ps=2.62e+06u w=1 l=0.15
M43 a_n4080_n100# a_n4128_131# a_n4172_n100# w_n4520_n851# pmos ad=3.1e+11p pd=2.62e+06u as=3.1e+11p ps=2.62e+06u w=1 l=0.15
M44 a_2852_n632# a_2804_n729# a_2760_n632# w_n4520_n851# pmos ad=3.1e+11p pd=2.62e+06u as=3.1e+11p ps=2.62e+06u w=1 l=0.15
M45 a_3482_n632# a_3434_n401# a_3390_n632# w_n4520_n851# pmos ad=3.1e+11p pd=2.62e+06u as=3.1e+11p ps=2.62e+06u w=1 l=0.15
M46 a_962_n632# a_914_n401# a_870_n632# w_n4520_n851# pmos ad=3.1e+11p pd=2.62e+06u as=3.1e+11p ps=2.62e+06u w=1 l=0.15
M47 a_n2400_n100# a_n2448_131# a_n2492_n100# w_n4520_n851# pmos ad=3.1e+11p pd=2.62e+06u as=3.1e+11p ps=2.62e+06u w=1 l=0.15
M48 a_2430_n100# a_2382_n197# a_2338_n100# w_n4520_n851# pmos ad=3.1e+11p pd=2.62e+06u as=3.1e+11p ps=2.62e+06u w=1 l=0.15
M49 w_n4520_n851# w_n4520_n851# w_n4520_n851# w_n4520_n851# pmos ad=0p pd=0u as=0p ps=0u w=1 l=0.15
M50 a_n928_n632# a_n976_n729# a_n1020_n632# w_n4520_n851# pmos ad=3.1e+11p pd=2.62e+06u as=3.1e+11p ps=2.62e+06u w=1 l=0.15
M51 a_122_n632# a_74_n401# a_30_n632# w_n4520_n851# pmos ad=3.1e+11p pd=2.62e+06u as=3.1e+11p ps=2.62e+06u w=1 l=0.15
M52 a_2012_n632# a_1964_n729# a_1920_n632# w_n4520_n851# pmos ad=3.1e+11p pd=2.62e+06u as=3.1e+11p ps=2.62e+06u w=1 l=0.15
M53 a_n3448_n632# a_n3496_n729# a_n3540_n632# w_n4520_n851# pmos ad=3.1e+11p pd=2.62e+06u as=3.1e+11p ps=2.62e+06u w=1 l=0.15
M54 w_n4520_n851# w_n4520_n851# w_n4520_n851# w_n4520_n851# pmos ad=0p pd=0u as=0p ps=0u w=1 l=0.15
M55 a_n930_n100# a_n978_n197# a_n1022_n100# w_n4520_n851# pmos ad=3.1e+11p pd=2.62e+06u as=3.1e+11p ps=2.62e+06u w=1 l=0.15
M56 a_n2818_n632# a_n2866_n401# a_n2910_n632# w_n4520_n851# pmos ad=3.1e+11p pd=2.62e+06u as=3.1e+11p ps=2.62e+06u w=1 l=0.15
M57 a_n1140_n100# a_n1188_131# a_n1232_n100# w_n4520_n851# pmos ad=3.1e+11p pd=2.62e+06u as=3.1e+11p ps=2.62e+06u w=1 l=0.15
M58 a_1170_n100# a_1122_n197# a_1078_n100# w_n4520_n851# pmos ad=3.1e+11p pd=2.62e+06u as=3.1e+11p ps=2.62e+06u w=1 l=0.15
M59 a_n88_n632# a_n136_n729# a_n180_n632# w_n4520_n851# pmos ad=3.1e+11p pd=2.62e+06u as=3.1e+11p ps=2.62e+06u w=1 l=0.15
M60 w_n4520_n851# w_n4520_n851# w_n4520_n851# w_n4520_n851# pmos ad=0p pd=0u as=0p ps=0u w=1 l=0.15
M61 a_n2610_n100# a_n2658_n197# a_n2702_n100# w_n4520_n851# pmos ad=3.1e+11p pd=2.62e+06u as=3.1e+11p ps=2.62e+06u w=1 l=0.15
M62 a_2640_n100# a_2592_131# a_2548_n100# w_n4520_n851# pmos ad=3.1e+11p pd=2.62e+06u as=3.1e+11p ps=2.62e+06u w=1 l=0.15
M63 a_1172_n632# a_1124_n729# a_1080_n632# w_n4520_n851# pmos ad=3.1e+11p pd=2.62e+06u as=3.1e+11p ps=2.62e+06u w=1 l=0.15
M64 a_3692_n632# a_3644_n729# a_3600_n632# w_n4520_n851# pmos ad=3.1e+11p pd=2.62e+06u as=3.1e+11p ps=2.62e+06u w=1 l=0.15
M65 a_n3030_n100# a_n3078_n197# a_n3122_n100# w_n4520_n851# pmos ad=3.1e+11p pd=2.62e+06u as=3.1e+11p ps=2.62e+06u w=1 l=0.15
M66 a_3060_n100# a_3012_131# a_2968_n100# w_n4520_n851# pmos ad=3.1e+11p pd=2.62e+06u as=3.1e+11p ps=2.62e+06u w=1 l=0.15
M67 a_n1978_n632# a_n2026_n401# a_n2070_n632# w_n4520_n851# pmos ad=3.1e+11p pd=2.62e+06u as=3.1e+11p ps=2.62e+06u w=1 l=0.15
M68 a_n3658_n632# a_n3706_n401# a_n3750_n632# w_n4520_n851# pmos ad=3.1e+11p pd=2.62e+06u as=3.1e+11p ps=2.62e+06u w=1 l=0.15
M69 a_n1138_n632# a_n1186_n401# a_n1230_n632# w_n4520_n851# pmos ad=3.1e+11p pd=2.62e+06u as=3.1e+11p ps=2.62e+06u w=1 l=0.15
M70 a_n1350_n100# a_n1398_n197# a_n1442_n100# w_n4520_n851# pmos ad=3.1e+11p pd=2.62e+06u as=3.1e+11p ps=2.62e+06u w=1 l=0.15
M71 a_1380_n100# a_1332_131# a_1288_n100# w_n4520_n851# pmos ad=3.1e+11p pd=2.62e+06u as=3.1e+11p ps=2.62e+06u w=1 l=0.15
M72 a_n2820_n100# a_n2868_131# a_n2912_n100# w_n4520_n851# pmos ad=3.1e+11p pd=2.62e+06u as=3.1e+11p ps=2.62e+06u w=1 l=0.15
M73 a_2850_n100# a_2802_n197# a_2758_n100# w_n4520_n851# pmos ad=3.1e+11p pd=2.62e+06u as=3.1e+11p ps=2.62e+06u w=1 l=0.15
M74 a_332_n632# a_284_n729# a_240_n632# w_n4520_n851# pmos ad=3.1e+11p pd=2.62e+06u as=3.1e+11p ps=2.62e+06u w=1 l=0.15
M75 a_n3240_n100# a_n3288_131# a_n3332_n100# w_n4520_n851# pmos ad=3.1e+11p pd=2.62e+06u as=3.1e+11p ps=2.62e+06u w=1 l=0.15
M76 a_3270_n100# a_3222_n197# a_3178_n100# w_n4520_n851# pmos ad=3.1e+11p pd=2.62e+06u as=3.1e+11p ps=2.62e+06u w=1 l=0.15
M77 a_n298_n632# a_n346_n401# a_n390_n632# w_n4520_n851# pmos ad=3.1e+11p pd=2.62e+06u as=3.1e+11p ps=2.62e+06u w=1 l=0.15
M78 a_1382_n632# a_1334_n401# a_1290_n632# w_n4520_n851# pmos ad=3.1e+11p pd=2.62e+06u as=3.1e+11p ps=2.62e+06u w=1 l=0.15
M79 a_3902_n632# a_3854_n401# a_3810_n632# w_n4520_n851# pmos ad=3.1e+11p pd=2.62e+06u as=3.1e+11p ps=2.62e+06u w=1 l=0.15
M80 a_n1560_n100# a_n1608_131# a_n1652_n100# w_n4520_n851# pmos ad=3.1e+11p pd=2.62e+06u as=3.1e+11p ps=2.62e+06u w=1 l=0.15
M81 a_120_n100# a_72_131# a_28_n100# w_n4520_n851# pmos ad=3.1e+11p pd=2.62e+06u as=3.1e+11p ps=2.62e+06u w=1 l=0.15
M82 a_1590_n100# a_1542_n197# a_1498_n100# w_n4520_n851# pmos ad=3.1e+11p pd=2.62e+06u as=3.1e+11p ps=2.62e+06u w=1 l=0.15
M83 a_n2188_n632# a_n2236_n729# a_n2280_n632# w_n4520_n851# pmos ad=3.1e+11p pd=2.62e+06u as=3.1e+11p ps=2.62e+06u w=1 l=0.15
.ends

.subckt latch_pmos_pair pmos_VCQUSW_0_a_n3540_n632# pmos_VCQUSW_0_a_3270_n100#
+ pmos_VCQUSW_0_a_3644_n729# pmos_VCQUSW_0_a_n2702_n100#
+ pmos_VCQUSW_0_a_n2026_n401# pmos_VCQUSW_0_a_n88_n632#
+ pmos_VCQUSW_0_a_n3448_n632# pmos_VCQUSW_0_a_1290_n632#
+ pmos_VCQUSW_0_a_3178_n100# pmos_VCQUSW_0_a_3900_n100#
+ pmos_VCQUSW_0_a_3854_n401# pmos_VCQUSW_0_a_3222_n197#
+ pmos_VCQUSW_0_a_n1560_n100# pmos_VCQUSW_0_a_3272_n632#
+ pmos_VCQUSW_0_a_2172_131# pmos_VCQUSW_0_a_1920_n632#
+ pmos_VCQUSW_0_a_3808_n100# pmos_VCQUSW_0_a_n3542_n100#
+ pmos_VCQUSW_0_a_n3916_n729# pmos_VCQUSW_0_a_n1818_n197#
+ pmos_VCQUSW_0_a_240_n632# pmos_VCQUSW_0_a_870_n632#
+ pmos_VCQUSW_0_a_3902_n632# pmos_VCQUSW_0_a_n3288_131#
+ pmos_VCQUSW_0_a_4110_n100# pmos_VCQUSW_0_a_4062_n197#
+ pmos_VCQUSW_0_a_n1440_n632# pmos_VCQUSW_0_a_4018_n100#
+ pmos_VCQUSW_0_a_1170_n100# pmos_VCQUSW_0_a_n558_n197#
+ pmos_VCQUSW_0_a_2130_n632# pmos_VCQUSW_0_a_2760_n632#
+ pmos_VCQUSW_0_a_1544_n729# pmos_VCQUSW_0_a_n768_131#
+ pmos_VCQUSW_0_a_n930_n100# pmos_VCQUSW_0_a_n300_n100#
+ pmos_VCQUSW_0_a_n2658_n197# pmos_VCQUSW_0_a_n2400_n100#
+ pmos_VCQUSW_0_a_4112_n632# pmos_VCQUSW_0_a_n1348_n632#
+ pmos_VCQUSW_0_a_n1978_n632# pmos_VCQUSW_0_a_1078_n100#
+ pmos_VCQUSW_0_a_1800_n100# pmos_VCQUSW_0_a_1754_n401#
+ pmos_VCQUSW_0_a_1122_n197# pmos_VCQUSW_0_a_1172_n632#
+ pmos_VCQUSW_0_a_120_n100# pmos_VCQUSW_0_a_750_n100#
+ pmos_VCQUSW_0_a_n180_n632# pmos_VCQUSW_0_a_1708_n100#
+ pmos_VCQUSW_0_a_n2280_n632# pmos_VCQUSW_0_a_2384_n729#
+ pmos_VCQUSW_0_a_n1442_n100# pmos_VCQUSW_0_a_n1816_n729#
+ pmos_VCQUSW_0_a_n3498_n197# pmos_VCQUSW_0_a_658_n100#
+ pmos_VCQUSW_0_a_1802_n632# pmos_VCQUSW_0_a_n3870_n100#
+ pmos_VCQUSW_0_a_n3240_n100# pmos_VCQUSW_0_a_n2188_n632#
+ pmos_VCQUSW_0_a_n810_n632# pmos_VCQUSW_0_a_n2910_n632#
+ pmos_VCQUSW_0_a_702_n197# pmos_VCQUSW_0_a_3600_n632#
+ pmos_VCQUSW_0_a_2010_n100# pmos_VCQUSW_0_a_2640_n100#
+ pmos_VCQUSW_0_a_752_n632# pmos_VCQUSW_0_a_122_n632#
+ pmos_VCQUSW_0_a_2594_n401# pmos_VCQUSW_0_a_n718_n632#
+ pmos_VCQUSW_0_a_3012_131# pmos_VCQUSW_0_a_n2818_n632#
+ pmos_VCQUSW_0_a_n182_n100# pmos_VCQUSW_0_a_2548_n100#
+ pmos_VCQUSW_0_a_n556_n729# pmos_VCQUSW_0_a_n2282_n100#
+ pmos_VCQUSW_0_a_n2656_n729# pmos_VCQUSW_0_a_1332_131#
+ pmos_VCQUSW_0_a_n4080_n100# pmos_VCQUSW_0_a_2642_n632#
+ pmos_VCQUSW_0_a_2012_n632# pmos_VCQUSW_0_a_n3120_n632#
+ pmos_VCQUSW_0_a_n3750_n632# pmos_VCQUSW_0_a_n4128_131#
+ pmos_VCQUSW_0_a_n812_n100# pmos_VCQUSW_0_a_n766_n401#
+ pmos_VCQUSW_0_a_n2912_n100# pmos_VCQUSW_0_a_3480_n100#
+ pmos_VCQUSW_0_a_3224_n729# pmos_VCQUSW_0_a_n2866_n401#
+ pmos_VCQUSW_0_a_n2448_131# pmos_VCQUSW_0_a_30_n632#
+ pmos_VCQUSW_0_a_n3028_n632# pmos_VCQUSW_0_a_n3658_n632#
+ pmos_VCQUSW_0_a_3388_n100# pmos_VCQUSW_0_a_n3496_n729#
+ pmos_VCQUSW_0_a_3434_n401# pmos_VCQUSW_0_a_n1398_n197#
+ pmos_VCQUSW_0_a_n1770_n100# pmos_VCQUSW_0_a_n1140_n100#
+ pmos_VCQUSW_0_a_3482_n632# pmos_VCQUSW_0_a_1500_n632#
+ pmos_VCQUSW_0_a_4064_n729# pmos_VCQUSW_0_a_n3122_n100#
+ pmos_VCQUSW_0_a_n3752_n100# pmos_VCQUSW_0_a_2592_131#
+ pmos_VCQUSW_0_a_450_n632# pmos_VCQUSW_0_a_n3706_n401#
+ pmos_VCQUSW_0_a_n1650_n632# pmos_VCQUSW_0_a_n1020_n632#
+ pmos_VCQUSW_0_a_1380_n100# pmos_VCQUSW_0_a_1124_n729#
+ pmos_VCQUSW_0_a_n138_n197# pmos_VCQUSW_0_a_2340_n632#
+ pmos_VCQUSW_0_a_2970_n632# pmos_VCQUSW_0_a_n2238_n197#
+ pmos_VCQUSW_0_a_n510_n100# pmos_VCQUSW_0_a_912_131#
+ pmos_VCQUSW_0_a_n2610_n100# pmos_VCQUSW_0_a_n1558_n632#
+ pmos_VCQUSW_0_a_1288_n100# pmos_VCQUSW_0_a_n1396_n729#
+ pmos_VCQUSW_0_a_1334_n401# pmos_VCQUSW_0_w_n4520_n851#
+ pmos_VCQUSW_0_a_1962_n197# pmos_VCQUSW_0_a_1382_n632#
+ pmos_VCQUSW_0_a_n390_n632# pmos_VCQUSW_0_a_330_n100#
+ pmos_VCQUSW_0_a_960_n100# pmos_VCQUSW_0_a_704_n729#
+ pmos_VCQUSW_0_a_1918_n100# pmos_VCQUSW_0_a_282_n197#
+ pmos_VCQUSW_0_a_n1652_n100# pmos_VCQUSW_0_a_n2490_n632#
+ pmos_VCQUSW_0_a_n1022_n100# pmos_VCQUSW_0_a_3180_n632#
+ pmos_VCQUSW_0_a_238_n100# pmos_VCQUSW_0_a_868_n100#
+ pmos_VCQUSW_0_a_n90_n100# pmos_VCQUSW_0_a_n298_n632#
+ pmos_VCQUSW_0_a_n3078_n197# pmos_VCQUSW_0_a_n3450_n100#
+ pmos_VCQUSW_0_a_n2398_n632# pmos_VCQUSW_0_a_914_n401#
+ pmos_VCQUSW_0_a_962_n632# pmos_VCQUSW_0_a_332_n632#
+ pmos_VCQUSW_0_a_3810_n632# pmos_VCQUSW_0_a_2220_n100#
+ pmos_VCQUSW_0_a_2850_n100# pmos_VCQUSW_0_a_2174_n401#
+ pmos_VCQUSW_0_a_n1608_131# pmos_VCQUSW_0_a_n1606_n401#
+ pmos_VCQUSW_0_a_n928_n632# pmos_VCQUSW_0_a_2128_n100#
+ pmos_VCQUSW_0_a_2758_n100# pmos_VCQUSW_0_a_n392_n100#
+ pmos_VCQUSW_0_a_n136_n729# pmos_VCQUSW_0_a_n2492_n100#
+ pmos_VCQUSW_0_a_n2236_n729# pmos_VCQUSW_0_a_3432_131#
+ pmos_VCQUSW_0_a_2802_n197# pmos_VCQUSW_0_a_72_131#
+ pmos_VCQUSW_0_a_2852_n632# pmos_VCQUSW_0_a_2222_n632#
+ pmos_VCQUSW_0_a_n3330_n632# pmos_VCQUSW_0_a_n3960_n632#
+ pmos_VCQUSW_0_a_1752_131# pmos_VCQUSW_0_a_n346_n401#
+ pmos_VCQUSW_0_a_3060_n100# pmos_VCQUSW_0_a_3690_n100#
+ pmos_VCQUSW_0_a_4020_n632# pmos_VCQUSW_0_a_n2446_n401#
+ pmos_VCQUSW_0_a_492_131# pmos_VCQUSW_0_a_n3238_n632#
+ pmos_VCQUSW_0_a_n3868_n632# pmos_VCQUSW_0_a_3598_n100#
+ pmos_VCQUSW_0_a_1080_n632# pmos_VCQUSW_0_a_n2868_131#
+ pmos_VCQUSW_0_a_n3076_n729# pmos_VCQUSW_0_a_3014_n401#
+ pmos_VCQUSW_0_a_3642_n197# pmos_VCQUSW_0_a_n1980_n100#
+ pmos_VCQUSW_0_a_n1350_n100# pmos_VCQUSW_0_a_3692_n632#
+ pmos_VCQUSW_0_a_3062_n632# pmos_VCQUSW_0_a_n4170_n632#
+ pmos_VCQUSW_0_a_n3332_n100# pmos_VCQUSW_0_a_n3962_n100#
+ pmos_VCQUSW_0_a_1710_n632# pmos_VCQUSW_0_a_n3286_n401#
+ pmos_VCQUSW_0_a_660_n632# pmos_VCQUSW_0_a_n4078_n632#
+ pmos_VCQUSW_0_a_n1188_131# pmos_VCQUSW_0_a_n348_131#
+ pmos_VCQUSW_0_a_n2190_n100# pmos_VCQUSW_0_a_74_n401#
+ pmos_VCQUSW_0_a_n1860_n632# pmos_VCQUSW_0_a_n1230_n632#
+ pmos_VCQUSW_0_a_2550_n632# pmos_VCQUSW_0_a_1590_n100#
+ pmos_VCQUSW_0_a_1964_n729# pmos_VCQUSW_0_a_n4172_n100#
+ pmos_VCQUSW_0_a_n978_n197# pmos_VCQUSW_0_a_n720_n100#
+ pmos_VCQUSW_0_a_28_n100# pmos_VCQUSW_0_a_284_n729#
+ pmos_VCQUSW_0_a_n1138_n632# pmos_VCQUSW_0_a_n1768_n632#
+ pmos_VCQUSW_0_a_n2820_n100# pmos_VCQUSW_0_a_1498_n100#
+ pmos_VCQUSW_0_a_n4126_n401# pmos_VCQUSW_0_a_1542_n197#
+ pmos_VCQUSW_0_a_540_n100# pmos_VCQUSW_0_a_1592_n632#
+ pmos_VCQUSW_0_a_494_n401# pmos_VCQUSW_0_a_n2070_n632#
+ pmos_VCQUSW_0_a_n1862_n100# pmos_VCQUSW_0_a_n1232_n100#
+ pmos_VCQUSW_0_a_3390_n632# pmos_VCQUSW_0_a_448_n100#
+ pmos_VCQUSW_0_a_n1186_n401# pmos_VCQUSW_0_a_n3660_n100#
+ pmos_VCQUSW_0_a_n3030_n100# pmos_VCQUSW_0_a_n600_n632#
+ pmos_VCQUSW_0_a_n2700_n632# pmos_VCQUSW_0_a_2430_n100#
+ pmos_VCQUSW_0_a_542_n632# pmos_VCQUSW_0_a_n3708_131#
+ pmos_VCQUSW_0_a_2804_n729# pmos_VCQUSW_0_a_2382_n197#
+ pmos_VCQUSW_0_a_n508_n632# pmos_VCQUSW_0_a_n3918_n197#
+ pmos_VCQUSW_0_a_n2608_n632# pmos_VCQUSW_0_a_2338_n100#
+ pmos_VCQUSW_0_a_2968_n100# pmos_VCQUSW_0_a_n976_n729#
+ pmos_VCQUSW_0_a_n2072_n100# pmos_VCQUSW_0_a_2432_n632#
+ pmos_VCQUSW_0_a_3852_131# pmos_VCQUSW_0_a_n2028_131#
+ pmos_VCQUSW_0_a_n602_n100#
Xpmos_VCQUSW_0 pmos_VCQUSW_0_a_n810_n632# pmos_VCQUSW_0_a_1802_n632#
+ pmos_VCQUSW_0_a_n4080_n100# pmos_VCQUSW_0_a_2640_n100#
+ pmos_VCQUSW_0_a_2010_n100# pmos_VCQUSW_0_a_3852_131#
+ pmos_VCQUSW_0_a_n3750_n632# pmos_VCQUSW_0_a_n3120_n632#
+ pmos_VCQUSW_0_a_3600_n632# pmos_VCQUSW_0_a_2594_n401#
+ pmos_VCQUSW_0_a_n88_n632# pmos_VCQUSW_0_a_n2866_n401#
+ pmos_VCQUSW_0_a_n2912_n100# pmos_VCQUSW_0_a_n718_n632#
+ pmos_VCQUSW_0_a_n556_n729# pmos_VCQUSW_0_a_2548_n100#
+ pmos_VCQUSW_0_a_n182_n100# pmos_VCQUSW_0_a_n3658_n632#
+ pmos_VCQUSW_0_a_n3028_n632# pmos_VCQUSW_0_a_n3496_n729#
+ pmos_VCQUSW_0_a_2012_n632# pmos_VCQUSW_0_a_2642_n632#
+ pmos_VCQUSW_0_a_n1140_n100# pmos_VCQUSW_0_a_n1770_n100#
+ pmos_VCQUSW_0_a_n1398_n197# pmos_VCQUSW_0_a_2172_131#
+ pmos_VCQUSW_0_a_n812_n100# pmos_VCQUSW_0_a_n4128_131#
+ pmos_VCQUSW_0_a_3224_n729# pmos_VCQUSW_0_a_n766_n401#
+ pmos_VCQUSW_0_a_3480_n100# pmos_VCQUSW_0_a_n3122_n100#
+ pmos_VCQUSW_0_a_n3752_n100# pmos_VCQUSW_0_a_240_n632#
+ pmos_VCQUSW_0_a_870_n632# pmos_VCQUSW_0_a_n2448_131#
+ pmos_VCQUSW_0_a_3388_n100# pmos_VCQUSW_0_a_3434_n401#
+ pmos_VCQUSW_0_a_n3706_n401# pmos_VCQUSW_0_a_3482_n632#
+ pmos_VCQUSW_0_a_492_131# pmos_VCQUSW_0_a_1500_n632#
+ pmos_VCQUSW_0_a_4064_n729# pmos_VCQUSW_0_a_n1650_n632#
+ pmos_VCQUSW_0_a_n1020_n632# pmos_VCQUSW_0_a_n768_131#
+ pmos_VCQUSW_0_a_n2238_n197# pmos_VCQUSW_0_a_n1558_n632#
+ pmos_VCQUSW_0_a_n2610_n100# pmos_VCQUSW_0_a_n1396_n729#
+ pmos_VCQUSW_0_w_n4520_n851# pmos_VCQUSW_0_a_750_n100#
+ pmos_VCQUSW_0_a_120_n100# pmos_VCQUSW_0_a_1124_n729#
+ pmos_VCQUSW_0_a_n2490_n632# pmos_VCQUSW_0_a_2340_n632#
+ pmos_VCQUSW_0_a_2970_n632# pmos_VCQUSW_0_a_1380_n100#
+ pmos_VCQUSW_0_a_658_n100# pmos_VCQUSW_0_a_n510_n100#
+ pmos_VCQUSW_0_a_n1022_n100# pmos_VCQUSW_0_a_n1652_n100#
+ pmos_VCQUSW_0_a_n138_n197# pmos_VCQUSW_0_a_1288_n100#
+ pmos_VCQUSW_0_a_n3450_n100# pmos_VCQUSW_0_a_n3078_n197#
+ pmos_VCQUSW_0_a_n2398_n632# pmos_VCQUSW_0_a_122_n632#
+ pmos_VCQUSW_0_a_752_n632# pmos_VCQUSW_0_a_1334_n401#
+ pmos_VCQUSW_0_a_74_n401# pmos_VCQUSW_0_a_702_n197#
+ pmos_VCQUSW_0_a_1382_n632# pmos_VCQUSW_0_a_n1606_n401#
+ pmos_VCQUSW_0_a_1962_n197# pmos_VCQUSW_0_a_3012_131#
+ pmos_VCQUSW_0_a_n390_n632# pmos_VCQUSW_0_a_1918_n100#
+ pmos_VCQUSW_0_a_28_n100# pmos_VCQUSW_0_a_3180_n632#
+ pmos_VCQUSW_0_a_n2492_n100# pmos_VCQUSW_0_a_1332_131#
+ pmos_VCQUSW_0_a_n2236_n729# pmos_VCQUSW_0_a_n298_n632#
+ pmos_VCQUSW_0_a_3810_n632# pmos_VCQUSW_0_a_2850_n100#
+ pmos_VCQUSW_0_a_2220_n100# pmos_VCQUSW_0_a_n3960_n632#
+ pmos_VCQUSW_0_a_n3330_n632# pmos_VCQUSW_0_a_2174_n401#
+ pmos_VCQUSW_0_a_n1608_131# pmos_VCQUSW_0_a_n928_n632#
+ pmos_VCQUSW_0_a_n2446_n401# pmos_VCQUSW_0_a_n136_n729#
+ pmos_VCQUSW_0_a_n3868_n632# pmos_VCQUSW_0_a_n3238_n632#
+ pmos_VCQUSW_0_a_2758_n100# pmos_VCQUSW_0_a_2128_n100#
+ pmos_VCQUSW_0_a_n392_n100# pmos_VCQUSW_0_a_n3076_n729#
+ pmos_VCQUSW_0_a_2802_n197# pmos_VCQUSW_0_a_2222_n632#
+ pmos_VCQUSW_0_a_2852_n632# pmos_VCQUSW_0_a_n1350_n100#
+ pmos_VCQUSW_0_a_n1980_n100# pmos_VCQUSW_0_a_n4170_n632#
+ pmos_VCQUSW_0_a_4020_n632# pmos_VCQUSW_0_a_n346_n401#
+ pmos_VCQUSW_0_a_3690_n100# pmos_VCQUSW_0_a_3060_n100#
+ pmos_VCQUSW_0_a_n3332_n100# pmos_VCQUSW_0_a_n3962_n100#
+ pmos_VCQUSW_0_a_2592_131# pmos_VCQUSW_0_a_450_n632#
+ pmos_VCQUSW_0_a_n3286_n401# pmos_VCQUSW_0_a_3598_n100#
+ pmos_VCQUSW_0_a_n4078_n632# pmos_VCQUSW_0_a_1080_n632#
+ pmos_VCQUSW_0_a_3014_n401# pmos_VCQUSW_0_a_n2868_131#
+ pmos_VCQUSW_0_a_3062_n632# pmos_VCQUSW_0_a_3692_n632#
+ pmos_VCQUSW_0_a_n2190_n100# pmos_VCQUSW_0_a_3642_n197#
+ pmos_VCQUSW_0_a_n1860_n632# pmos_VCQUSW_0_a_n1230_n632#
+ pmos_VCQUSW_0_a_1710_n632# pmos_VCQUSW_0_a_n4172_n100#
+ pmos_VCQUSW_0_a_n2820_n100# pmos_VCQUSW_0_a_n1768_n632#
+ pmos_VCQUSW_0_a_n1138_n632# pmos_VCQUSW_0_a_n1188_131#
+ pmos_VCQUSW_0_a_704_n729# pmos_VCQUSW_0_a_n4126_n401#
+ pmos_VCQUSW_0_a_960_n100# pmos_VCQUSW_0_a_330_n100#
+ pmos_VCQUSW_0_a_1964_n729# pmos_VCQUSW_0_a_1590_n100#
+ pmos_VCQUSW_0_a_282_n197# pmos_VCQUSW_0_a_n2070_n632#
+ pmos_VCQUSW_0_a_2550_n632# pmos_VCQUSW_0_a_n90_n100#
+ pmos_VCQUSW_0_a_n978_n197# pmos_VCQUSW_0_a_n1186_n401#
+ pmos_VCQUSW_0_a_868_n100# pmos_VCQUSW_0_a_238_n100#
+ pmos_VCQUSW_0_a_n720_n100# pmos_VCQUSW_0_a_n1232_n100#
+ pmos_VCQUSW_0_a_n1862_n100# pmos_VCQUSW_0_a_914_n401#
+ pmos_VCQUSW_0_a_1498_n100# pmos_VCQUSW_0_a_n3030_n100#
+ pmos_VCQUSW_0_a_n3660_n100# pmos_VCQUSW_0_a_n2700_n632#
+ pmos_VCQUSW_0_a_332_n632# pmos_VCQUSW_0_a_962_n632#
+ pmos_VCQUSW_0_a_1542_n197# pmos_VCQUSW_0_a_1592_n632#
+ pmos_VCQUSW_0_a_n3918_n197# pmos_VCQUSW_0_a_n2608_n632#
+ pmos_VCQUSW_0_a_3390_n632# pmos_VCQUSW_0_a_n2072_n100#
+ pmos_VCQUSW_0_a_3432_131# pmos_VCQUSW_0_a_n600_n632#
+ pmos_VCQUSW_0_a_1752_131# pmos_VCQUSW_0_a_2804_n729#
+ pmos_VCQUSW_0_a_n3540_n632# pmos_VCQUSW_0_a_2430_n100#
+ pmos_VCQUSW_0_a_n2702_n100# pmos_VCQUSW_0_a_n3708_131#
+ pmos_VCQUSW_0_a_n508_n632# pmos_VCQUSW_0_a_n2026_n401#
+ pmos_VCQUSW_0_a_2382_n197# pmos_VCQUSW_0_a_2968_n100#
+ pmos_VCQUSW_0_a_2338_n100# pmos_VCQUSW_0_a_n976_n729#
+ pmos_VCQUSW_0_a_n3448_n632# pmos_VCQUSW_0_a_n1560_n100#
+ pmos_VCQUSW_0_a_2432_n632# pmos_VCQUSW_0_a_3644_n729#
+ pmos_VCQUSW_0_a_3270_n100# pmos_VCQUSW_0_a_n602_n100#
+ pmos_VCQUSW_0_a_n2028_131# pmos_VCQUSW_0_a_n3916_n729#
+ pmos_VCQUSW_0_a_n3542_n100# pmos_VCQUSW_0_a_660_n632#
+ pmos_VCQUSW_0_a_n1818_n197# pmos_VCQUSW_0_a_3178_n100#
+ pmos_VCQUSW_0_a_1290_n632# pmos_VCQUSW_0_a_3900_n100#
+ pmos_VCQUSW_0_a_3854_n401# pmos_VCQUSW_0_a_3222_n197#
+ pmos_VCQUSW_0_a_3272_n632# pmos_VCQUSW_0_a_n348_131#
+ pmos_VCQUSW_0_a_30_n632# pmos_VCQUSW_0_a_3808_n100#
+ pmos_VCQUSW_0_a_n1440_n632# pmos_VCQUSW_0_a_1920_n632#
+ pmos_VCQUSW_0_a_284_n729# pmos_VCQUSW_0_a_n2658_n197#
+ pmos_VCQUSW_0_a_3902_n632# pmos_VCQUSW_0_a_n2400_n100#
+ pmos_VCQUSW_0_a_n1978_n632# pmos_VCQUSW_0_a_n1348_n632#
+ pmos_VCQUSW_0_a_n3288_131# pmos_VCQUSW_0_a_4110_n100#
+ pmos_VCQUSW_0_a_494_n401# pmos_VCQUSW_0_a_540_n100#
+ pmos_VCQUSW_0_a_4062_n197# pmos_VCQUSW_0_a_4018_n100#
+ pmos_VCQUSW_0_a_1544_n729# pmos_VCQUSW_0_a_n2280_n632#
+ pmos_VCQUSW_0_a_2130_n632# pmos_VCQUSW_0_a_2760_n632#
+ pmos_VCQUSW_0_a_1170_n100# pmos_VCQUSW_0_a_72_131#
+ pmos_VCQUSW_0_a_n300_n100# pmos_VCQUSW_0_a_n930_n100#
+ pmos_VCQUSW_0_a_n1442_n100# pmos_VCQUSW_0_a_n558_n197#
+ pmos_VCQUSW_0_a_n1816_n729# pmos_VCQUSW_0_a_448_n100#
+ pmos_VCQUSW_0_a_n3240_n100# pmos_VCQUSW_0_a_n3870_n100#
+ pmos_VCQUSW_0_a_n3498_n197# pmos_VCQUSW_0_a_n2188_n632#
+ pmos_VCQUSW_0_a_4112_n632# pmos_VCQUSW_0_a_1078_n100#
+ pmos_VCQUSW_0_a_1754_n401# pmos_VCQUSW_0_a_1800_n100#
+ pmos_VCQUSW_0_a_n2910_n632# pmos_VCQUSW_0_a_542_n632#
+ pmos_VCQUSW_0_a_1122_n197# pmos_VCQUSW_0_a_n180_n632#
+ pmos_VCQUSW_0_a_1172_n632# pmos_VCQUSW_0_a_2384_n729#
+ pmos_VCQUSW_0_a_n2818_n632# pmos_VCQUSW_0_a_1708_n100#
+ pmos_VCQUSW_0_a_912_131# pmos_VCQUSW_0_a_n2656_n729#
+ pmos_VCQUSW_0_a_n2282_n100# pmos_VCQUSW
.ends

.subckt sky130_fd_sc_hd__nand2_4 A B VGND VPWR Y VNB VPB
M0 a_27_47# A Y VNB nmos ad=8.645e+11p pd=9.16e+06u as=3.51e+11p ps=3.68e+06u w=0.65 l=0.15
M1 a_27_47# A Y VNB nmos ad=0p pd=0u as=0p ps=0u w=0.65 l=0.15
M2 Y A VPWR VPB pmos_hvt ad=1.08e+12p pd=1.016e+07u as=1.33e+12p ps=1.266e+07u w=1 l=0.15
M3 VPWR B Y VPB pmos_hvt ad=0p pd=0u as=0p ps=0u w=1 l=0.15
M4 Y B VPWR VPB pmos_hvt ad=0p pd=0u as=0p ps=0u w=1 l=0.15
M5 VPWR B Y VPB pmos_hvt ad=0p pd=0u as=0p ps=0u w=1 l=0.15
M6 a_27_47# B VGND VNB nmos ad=0p pd=0u as=3.51e+11p ps=3.68e+06u w=0.65 l=0.15
M7 a_27_47# B VGND VNB nmos ad=0p pd=0u as=0p ps=0u w=0.65 l=0.15
M8 VPWR A Y VPB pmos_hvt ad=0p pd=0u as=0p ps=0u w=1 l=0.15
M9 VGND B a_27_47# VNB nmos ad=0p pd=0u as=0p ps=0u w=0.65 l=0.15
M10 Y A a_27_47# VNB nmos ad=0p pd=0u as=0p ps=0u w=0.65 l=0.15
M11 Y A VPWR VPB pmos_hvt ad=0p pd=0u as=0p ps=0u w=1 l=0.15
M12 Y A a_27_47# VNB nmos ad=0p pd=0u as=0p ps=0u w=0.65 l=0.15
M13 VPWR A Y VPB pmos_hvt ad=0p pd=0u as=0p ps=0u w=1 l=0.15
M14 Y B VPWR VPB pmos_hvt ad=0p pd=0u as=0p ps=0u w=1 l=0.15
M15 VGND B a_27_47# VNB nmos ad=0p pd=0u as=0p ps=0u w=0.65 l=0.15
.ends

.subckt pmos_VCG74W a_543_n100# a_159_n100# a_n609_n100# a_495_n197#
+ a_n705_n100# a_255_n100# a_n657_n197# a_n369_131# a_351_n100# a_n417_n100# a_n801_n100#
+ a_303_n197# a_n129_n100# a_n513_n100# a_n465_n197# a_n561_131# a_63_n100# a_n225_n100#
+ a_399_131# a_111_n197# a_n321_n100# a_n273_n197# a_15_131# a_n753_131# a_639_n100#
+ w_n1031_n319# a_591_131# a_207_131# a_735_n100# a_n33_n100# a_687_n197# a_447_n100#
+ a_n81_n197# a_n177_131#
M0 a_63_n100# a_15_131# a_n33_n100# w_n1031_n319# pmos ad=3.3e+11p pd=2.66e+06u as=3.3e+11p ps=2.66e+06u w=1 l=0.15
M1 a_n33_n100# a_n81_n197# a_n129_n100# w_n1031_n319# pmos ad=0p pd=0u as=3.3e+11p ps=2.66e+06u w=1 l=0.15
M2 a_255_n100# a_207_131# a_159_n100# w_n1031_n319# pmos ad=3.3e+11p pd=2.66e+06u as=3.3e+11p ps=2.66e+06u w=1 l=0.15
M3 a_351_n100# a_303_n197# a_255_n100# w_n1031_n319# pmos ad=3.3e+11p pd=2.66e+06u as=0p ps=0u w=1 l=0.15
M4 a_543_n100# a_495_n197# a_447_n100# w_n1031_n319# pmos ad=3.3e+11p pd=2.66e+06u as=3.3e+11p ps=2.66e+06u w=1 l=0.15
M5 w_n1031_n319# w_n1031_n319# a_735_n100# w_n1031_n319# pmos ad=6.2e+11p pd=5.24e+06u as=3.3e+11p ps=2.66e+06u w=1 l=0.15
M6 a_159_n100# a_111_n197# a_63_n100# w_n1031_n319# pmos ad=0p pd=0u as=0p ps=0u w=1 l=0.15
M7 a_447_n100# a_399_131# a_351_n100# w_n1031_n319# pmos ad=0p pd=0u as=0p ps=0u w=1 l=0.15
M8 a_639_n100# a_591_131# a_543_n100# w_n1031_n319# pmos ad=3.3e+11p pd=2.66e+06u as=0p ps=0u w=1 l=0.15
M9 a_735_n100# a_687_n197# a_639_n100# w_n1031_n319# pmos ad=0p pd=0u as=0p ps=0u w=1 l=0.15