* NGSPICE file created from ota.ext - technology: sky130A

.subckt sky130_fd_pr__nfet_01v8_lvt_VU7MNH a_n652_n140# a_652_n194# a_772_n140# a_n60_n194#
+ a_n474_n140# a_n416_n194# a_474_n194# a_594_n140# a_n238_n194# a_n296_n140# a_296_n194#
+ a_60_n140# a_416_n140# a_n118_n140# a_118_n194# a_238_n140# a_n772_n194# a_n830_n140#
+ a_n594_n194# VSUBS
X0 a_772_n140# a_652_n194# a_594_n140# VSUBS sky130_fd_pr__nfet_01v8_lvt ad=4.06e+11p pd=3.38e+06u as=4.06e+11p ps=3.38e+06u w=1.4e+06u l=600000u
X1 a_n118_n140# a_n238_n194# a_n296_n140# VSUBS sky130_fd_pr__nfet_01v8_lvt ad=4.06e+11p pd=3.38e+06u as=4.06e+11p ps=3.38e+06u w=1.4e+06u l=600000u
X2 a_n652_n140# a_n772_n194# a_n830_n140# VSUBS sky130_fd_pr__nfet_01v8_lvt ad=4.06e+11p pd=3.38e+06u as=4.06e+11p ps=3.38e+06u w=1.4e+06u l=600000u
X3 a_60_n140# a_n60_n194# a_n118_n140# VSUBS sky130_fd_pr__nfet_01v8_lvt ad=4.06e+11p pd=3.38e+06u as=0p ps=0u w=1.4e+06u l=600000u
X4 a_594_n140# a_474_n194# a_416_n140# VSUBS sky130_fd_pr__nfet_01v8_lvt ad=0p pd=0u as=4.06e+11p ps=3.38e+06u w=1.4e+06u l=600000u
X5 a_n474_n140# a_n594_n194# a_n652_n140# VSUBS sky130_fd_pr__nfet_01v8_lvt ad=4.06e+11p pd=3.38e+06u as=0p ps=0u w=1.4e+06u l=600000u
X6 a_416_n140# a_296_n194# a_238_n140# VSUBS sky130_fd_pr__nfet_01v8_lvt ad=0p pd=0u as=4.06e+11p ps=3.38e+06u w=1.4e+06u l=600000u
X7 a_n296_n140# a_n416_n194# a_n474_n140# VSUBS sky130_fd_pr__nfet_01v8_lvt ad=0p pd=0u as=0p ps=0u w=1.4e+06u l=600000u
X8 a_238_n140# a_118_n194# a_60_n140# VSUBS sky130_fd_pr__nfet_01v8_lvt ad=0p pd=0u as=0p ps=0u w=1.4e+06u l=600000u
C0 a_594_n140# a_n296_n140# 0.02fF
C1 a_n416_n194# a_296_n194# 0.01fF
C2 a_n474_n140# a_60_n140# 0.04fF
C3 a_594_n140# a_772_n140# 0.13fF
C4 a_n474_n140# a_n296_n140# 0.13fF
C5 a_n60_n194# a_296_n194# 0.03fF
C6 a_n474_n140# a_772_n140# 0.02fF
C7 a_n652_n140# a_416_n140# 0.02fF
C8 a_n772_n194# a_n416_n194# 0.03fF
C9 a_n594_n194# a_474_n194# 0.01fF
C10 a_n118_n140# a_n830_n140# 0.03fF
C11 a_n772_n194# a_n60_n194# 0.01fF
C12 a_118_n194# a_474_n194# 0.03fF
C13 a_n118_n140# a_594_n140# 0.03fF
C14 a_60_n140# a_n296_n140# 0.06fF
C15 a_n594_n194# a_296_n194# 0.01fF
C16 a_238_n140# a_n830_n140# 0.02fF
C17 a_n474_n140# a_n118_n140# 0.06fF
C18 a_n238_n194# a_652_n194# 0.01fF
C19 a_60_n140# a_772_n140# 0.03fF
C20 a_238_n140# a_594_n140# 0.06fF
C21 a_772_n140# a_n296_n140# 0.02fF
C22 a_118_n194# a_296_n194# 0.10fF
C23 a_n772_n194# a_n594_n194# 0.10fF
C24 a_n474_n140# a_238_n140# 0.03fF
C25 a_416_n140# a_n830_n140# 0.02fF
C26 a_n772_n194# a_118_n194# 0.01fF
C27 a_416_n140# a_594_n140# 0.13fF
C28 a_n118_n140# a_60_n140# 0.13fF
C29 a_474_n194# a_296_n194# 0.10fF
C30 a_n118_n140# a_n296_n140# 0.13fF
C31 a_n474_n140# a_416_n140# 0.02fF
C32 a_n118_n140# a_772_n140# 0.02fF
C33 a_n416_n194# a_n238_n194# 0.10fF
C34 a_238_n140# a_60_n140# 0.13fF
C35 a_n772_n194# a_474_n194# 0.01fF
C36 a_238_n140# a_n296_n140# 0.04fF
C37 a_n60_n194# a_n238_n194# 0.10fF
C38 a_238_n140# a_772_n140# 0.04fF
C39 a_n772_n194# a_296_n194# 0.01fF
C40 a_416_n140# a_60_n140# 0.06fF
C41 a_n416_n194# a_652_n194# 0.01fF
C42 a_416_n140# a_n296_n140# 0.03fF
C43 a_416_n140# a_772_n140# 0.06fF
C44 a_n60_n194# a_652_n194# 0.01fF
C45 a_n594_n194# a_n238_n194# 0.03fF
C46 a_238_n140# a_n118_n140# 0.06fF
C47 a_118_n194# a_n238_n194# 0.03fF
C48 a_n652_n140# a_n830_n140# 0.13fF
C49 a_416_n140# a_n118_n140# 0.04fF
C50 a_n652_n140# a_594_n140# 0.02fF
C51 a_n594_n194# a_652_n194# 0.01fF
C52 a_n474_n140# a_n652_n140# 0.13fF
C53 a_474_n194# a_n238_n194# 0.01fF
C54 a_238_n140# a_416_n140# 0.13fF
C55 a_118_n194# a_652_n194# 0.02fF
C56 a_n60_n194# a_n416_n194# 0.03fF
C57 a_296_n194# a_n238_n194# 0.02fF
C58 a_474_n194# a_652_n194# 0.10fF
C59 a_n652_n140# a_60_n140# 0.03fF
C60 a_n652_n140# a_n296_n140# 0.06fF
C61 a_n772_n194# a_n238_n194# 0.02fF
C62 a_n594_n194# a_n416_n194# 0.10fF
C63 a_594_n140# a_n830_n140# 0.01fF
C64 a_n652_n140# a_772_n140# 0.01fF
C65 a_n474_n140# a_n830_n140# 0.06fF
C66 a_n60_n194# a_n594_n194# 0.02fF
C67 a_296_n194# a_652_n194# 0.03fF
C68 a_118_n194# a_n416_n194# 0.02fF
C69 a_n474_n140# a_594_n140# 0.02fF
C70 a_n60_n194# a_118_n194# 0.10fF
C71 a_n772_n194# a_652_n194# 0.01fF
C72 a_n652_n140# a_n118_n140# 0.04fF
C73 a_n416_n194# a_474_n194# 0.01fF
C74 a_60_n140# a_n830_n140# 0.02fF
C75 a_n60_n194# a_474_n194# 0.02fF
C76 a_n296_n140# a_n830_n140# 0.04fF
C77 a_n652_n140# a_238_n140# 0.02fF
C78 a_60_n140# a_594_n140# 0.04fF
C79 a_772_n140# a_n830_n140# 0.01fF
C80 a_n594_n194# a_118_n194# 0.01fF
C81 a_772_n140# VSUBS 0.02fF
C82 a_594_n140# VSUBS 0.02fF
C83 a_416_n140# VSUBS 0.02fF
C84 a_238_n140# VSUBS 0.02fF
C85 a_60_n140# VSUBS 0.02fF
C86 a_n118_n140# VSUBS 0.02fF
C87 a_n296_n140# VSUBS 0.02fF
C88 a_n474_n140# VSUBS 0.02fF
C89 a_n652_n140# VSUBS 0.02fF
C90 a_n830_n140# VSUBS 0.02fF
C91 a_652_n194# VSUBS 0.29fF
C92 a_474_n194# VSUBS 0.23fF
C93 a_296_n194# VSUBS 0.24fF
C94 a_118_n194# VSUBS 0.25fF
C95 a_n60_n194# VSUBS 0.26fF
C96 a_n238_n194# VSUBS 0.27fF
C97 a_n416_n194# VSUBS 0.28fF
C98 a_n594_n194# VSUBS 0.28fF
C99 a_n772_n194# VSUBS 0.35fF
.ends

.subckt sky130_fd_pr__nfet_01v8_lvt_TRAZV8 a_20_n120# a_n78_n120# a_n33_n208# VSUBS
X0 a_20_n120# a_n33_n208# a_n78_n120# VSUBS sky130_fd_pr__nfet_01v8_lvt ad=3.48e+11p pd=2.98e+06u as=3.48e+11p ps=2.98e+06u w=1.2e+06u l=200000u
C0 a_n33_n208# a_20_n120# 0.02fF
C1 a_n78_n120# a_n33_n208# 0.02fF
C2 a_n78_n120# a_20_n120# 0.28fF
C3 a_20_n120# VSUBS 0.02fF
C4 a_n78_n120# VSUBS 0.02fF
C5 a_n33_n208# VSUBS 0.29fF
.ends

.subckt sky130_fd_pr__nfet_01v8_BASQVB a_n1008_n140# a_n652_n140# a_652_n194# a_772_n140#
+ a_n60_n194# a_n474_n140# a_n416_n194# a_474_n194# a_594_n140# a_n238_n194# a_n296_n140#
+ a_296_n194# a_60_n140# a_416_n140# a_n950_n194# a_n118_n140# a_118_n194# a_238_n140#
+ a_n772_n194# a_n830_n140# a_830_n194# a_950_n140# a_n594_n194# VSUBS
X0 a_772_n140# a_652_n194# a_594_n140# VSUBS sky130_fd_pr__nfet_01v8 ad=4.06e+11p pd=3.38e+06u as=4.06e+11p ps=3.38e+06u w=1.4e+06u l=600000u
X1 a_n118_n140# a_n238_n194# a_n296_n140# VSUBS sky130_fd_pr__nfet_01v8 ad=4.06e+11p pd=3.38e+06u as=4.06e+11p ps=3.38e+06u w=1.4e+06u l=600000u
X2 a_n652_n140# a_n772_n194# a_n830_n140# VSUBS sky130_fd_pr__nfet_01v8 ad=4.06e+11p pd=3.38e+06u as=4.06e+11p ps=3.38e+06u w=1.4e+06u l=600000u
X3 a_594_n140# a_474_n194# a_416_n140# VSUBS sky130_fd_pr__nfet_01v8 ad=0p pd=0u as=4.06e+11p ps=3.38e+06u w=1.4e+06u l=600000u
X4 a_60_n140# a_n60_n194# a_n118_n140# VSUBS sky130_fd_pr__nfet_01v8 ad=4.06e+11p pd=3.38e+06u as=0p ps=0u w=1.4e+06u l=600000u
X5 a_950_n140# a_830_n194# a_772_n140# VSUBS sky130_fd_pr__nfet_01v8 ad=4.06e+11p pd=3.38e+06u as=0p ps=0u w=1.4e+06u l=600000u
X6 a_n830_n140# a_n950_n194# a_n1008_n140# VSUBS sky130_fd_pr__nfet_01v8 ad=0p pd=0u as=4.06e+11p ps=3.38e+06u w=1.4e+06u l=600000u
X7 a_n474_n140# a_n594_n194# a_n652_n140# VSUBS sky130_fd_pr__nfet_01v8 ad=4.06e+11p pd=3.38e+06u as=0p ps=0u w=1.4e+06u l=600000u
X8 a_416_n140# a_296_n194# a_238_n140# VSUBS sky130_fd_pr__nfet_01v8 ad=0p pd=0u as=4.06e+11p ps=3.38e+06u w=1.4e+06u l=600000u
X9 a_n296_n140# a_n416_n194# a_n474_n140# VSUBS sky130_fd_pr__nfet_01v8 ad=0p pd=0u as=0p ps=0u w=1.4e+06u l=600000u
X10 a_238_n140# a_118_n194# a_60_n140# VSUBS sky130_fd_pr__nfet_01v8 ad=0p pd=0u as=0p ps=0u w=1.4e+06u l=600000u
C0 a_772_n140# a_60_n140# 0.03fF
C1 a_n296_n140# a_594_n140# 0.02fF
C2 a_772_n140# a_950_n140# 0.13fF
C3 a_n296_n140# a_60_n140# 0.06fF
C4 a_n60_n194# a_n416_n194# 0.03fF
C5 a_n950_n194# a_n60_n194# 0.01fF
C6 a_772_n140# a_238_n140# 0.04fF
C7 a_n296_n140# a_950_n140# 0.02fF
C8 a_n1008_n140# a_n830_n140# 0.13fF
C9 a_n474_n140# a_n652_n140# 0.13fF
C10 a_n296_n140# a_238_n140# 0.04fF
C11 a_n652_n140# a_416_n140# 0.02fF
C12 a_n652_n140# a_n118_n140# 0.04fF
C13 a_652_n194# a_118_n194# 0.02fF
C14 a_296_n194# a_118_n194# 0.10fF
C15 a_n238_n194# a_n594_n194# 0.03fF
C16 a_652_n194# a_296_n194# 0.03fF
C17 a_n652_n140# a_594_n140# 0.02fF
C18 a_118_n194# a_n772_n194# 0.01fF
C19 a_n652_n140# a_60_n140# 0.03fF
C20 a_950_n140# a_n652_n140# 0.01fF
C21 a_n238_n194# a_n416_n194# 0.10fF
C22 a_n950_n194# a_n238_n194# 0.01fF
C23 a_652_n194# a_n772_n194# 0.01fF
C24 a_238_n140# a_n652_n140# 0.02fF
C25 a_n474_n140# a_n830_n140# 0.06fF
C26 a_296_n194# a_n772_n194# 0.01fF
C27 a_n830_n140# a_416_n140# 0.02fF
C28 a_n830_n140# a_n118_n140# 0.03fF
C29 a_474_n194# a_118_n194# 0.03fF
C30 a_n296_n140# a_772_n140# 0.02fF
C31 a_474_n194# a_652_n194# 0.10fF
C32 a_n594_n194# a_n416_n194# 0.10fF
C33 a_n950_n194# a_n594_n194# 0.03fF
C34 a_830_n194# a_118_n194# 0.01fF
C35 a_474_n194# a_296_n194# 0.10fF
C36 a_n830_n140# a_594_n140# 0.01fF
C37 a_n1008_n140# a_n474_n140# 0.04fF
C38 a_n830_n140# a_60_n140# 0.02fF
C39 a_830_n194# a_652_n194# 0.10fF
C40 a_n1008_n140# a_416_n140# 0.01fF
C41 a_n1008_n140# a_n118_n140# 0.02fF
C42 a_474_n194# a_n772_n194# 0.01fF
C43 a_830_n194# a_296_n194# 0.02fF
C44 a_n950_n194# a_n416_n194# 0.02fF
C45 a_n830_n140# a_238_n140# 0.02fF
C46 a_n60_n194# a_118_n194# 0.10fF
C47 a_n60_n194# a_652_n194# 0.01fF
C48 a_830_n194# a_n772_n194# 0.01fF
C49 a_n60_n194# a_296_n194# 0.03fF
C50 a_n1008_n140# a_594_n140# 0.01fF
C51 a_772_n140# a_n652_n140# 0.01fF
C52 a_n1008_n140# a_60_n140# 0.02fF
C53 a_n296_n140# a_n652_n140# 0.06fF
C54 a_n1008_n140# a_238_n140# 0.02fF
C55 a_n60_n194# a_n772_n194# 0.01fF
C56 a_830_n194# a_474_n194# 0.03fF
C57 a_n474_n140# a_416_n140# 0.02fF
C58 a_n474_n140# a_n118_n140# 0.06fF
C59 a_416_n140# a_n118_n140# 0.04fF
C60 a_n238_n194# a_118_n194# 0.03fF
C61 a_n60_n194# a_474_n194# 0.02fF
C62 a_652_n194# a_n238_n194# 0.01fF
C63 a_772_n140# a_n830_n140# 0.01fF
C64 a_n238_n194# a_296_n194# 0.02fF
C65 a_n474_n140# a_594_n140# 0.02fF
C66 a_n296_n140# a_n830_n140# 0.04fF
C67 a_n474_n140# a_60_n140# 0.04fF
C68 a_416_n140# a_594_n140# 0.13fF
C69 a_830_n194# a_n60_n194# 0.01fF
C70 a_594_n140# a_n118_n140# 0.03fF
C71 a_n594_n194# a_118_n194# 0.01fF
C72 a_n474_n140# a_950_n140# 0.01fF
C73 a_416_n140# a_60_n140# 0.06fF
C74 a_60_n140# a_n118_n140# 0.13fF
C75 a_n474_n140# a_238_n140# 0.03fF
C76 a_950_n140# a_416_n140# 0.04fF
C77 a_n238_n194# a_n772_n194# 0.02fF
C78 a_950_n140# a_n118_n140# 0.02fF
C79 a_652_n194# a_n594_n194# 0.01fF
C80 a_238_n140# a_416_n140# 0.13fF
C81 a_238_n140# a_n118_n140# 0.06fF
C82 a_296_n194# a_n594_n194# 0.01fF
C83 a_n416_n194# a_118_n194# 0.02fF
C84 a_n950_n194# a_118_n194# 0.01fF
C85 a_594_n140# a_60_n140# 0.04fF
C86 a_n1008_n140# a_n296_n140# 0.03fF
C87 a_474_n194# a_n238_n194# 0.01fF
C88 a_n594_n194# a_n772_n194# 0.10fF
C89 a_950_n140# a_594_n140# 0.06fF
C90 a_652_n194# a_n416_n194# 0.01fF
C91 a_n950_n194# a_652_n194# 0.01fF
C92 a_238_n140# a_594_n140# 0.06fF
C93 a_950_n140# a_60_n140# 0.02fF
C94 a_296_n194# a_n416_n194# 0.01fF
C95 a_n950_n194# a_296_n194# 0.01fF
C96 a_n830_n140# a_n652_n140# 0.13fF
C97 a_238_n140# a_60_n140# 0.13fF
C98 a_950_n140# a_238_n140# 0.03fF
C99 a_830_n194# a_n238_n194# 0.01fF
C100 a_n416_n194# a_n772_n194# 0.03fF
C101 a_474_n194# a_n594_n194# 0.01fF
C102 a_n950_n194# a_n772_n194# 0.10fF
C103 a_n60_n194# a_n238_n194# 0.10fF
C104 a_n474_n140# a_772_n140# 0.02fF
C105 a_830_n194# a_n594_n194# 0.01fF
C106 a_n1008_n140# a_n652_n140# 0.06fF
C107 a_772_n140# a_416_n140# 0.06fF
C108 a_n474_n140# a_n296_n140# 0.13fF
C109 a_772_n140# a_n118_n140# 0.02fF
C110 a_474_n194# a_n416_n194# 0.01fF
C111 a_n950_n194# a_474_n194# 0.01fF
C112 a_n296_n140# a_416_n140# 0.03fF
C113 a_n296_n140# a_n118_n140# 0.13fF
C114 a_n60_n194# a_n594_n194# 0.02fF
C115 a_830_n194# a_n416_n194# 0.01fF
C116 a_772_n140# a_594_n140# 0.13fF
C117 a_950_n140# VSUBS 0.02fF
C118 a_772_n140# VSUBS 0.02fF
C119 a_594_n140# VSUBS 0.02fF
C120 a_416_n140# VSUBS 0.02fF
C121 a_238_n140# VSUBS 0.02fF
C122 a_60_n140# VSUBS 0.02fF
C123 a_n118_n140# VSUBS 0.02fF
C124 a_n296_n140# VSUBS 0.02fF
C125 a_n474_n140# VSUBS 0.02fF
C126 a_n652_n140# VSUBS 0.02fF
C127 a_n830_n140# VSUBS 0.02fF
C128 a_n1008_n140# VSUBS 0.02fF
C129 a_830_n194# VSUBS 0.29fF
C130 a_652_n194# VSUBS 0.23fF
C131 a_474_n194# VSUBS 0.24fF
C132 a_296_n194# VSUBS 0.25fF
C133 a_118_n194# VSUBS 0.26fF
C134 a_n60_n194# VSUBS 0.27fF
C135 a_n238_n194# VSUBS 0.28fF
C136 a_n416_n194# VSUBS 0.28fF
C137 a_n594_n194# VSUBS 0.29fF
C138 a_n772_n194# VSUBS 0.29fF
C139 a_n950_n194# VSUBS 0.35fF
.ends

.subckt sky130_fd_pr__nfet_01v8_UFQYRB a_1751_n140# a_n149_n194# a_1987_n194# a_n2819_n194#
+ a_n207_n140# a_n1809_n140# a_n2877_n140# a_207_n194# a_n2285_n194# a_1453_n194#
+ a_n1217_n194# a_n3353_n194# a_327_n140# a_n1275_n140# a_n2343_n140# a_2521_n194#
+ a_n861_n194# a_1573_n140# a_n3411_n140# a_2641_n140# a_n2699_n140# a_2877_n194#
+ a_1809_n194# a_2997_n140# a_n29_n140# a_n1039_n194# a_n3175_n194# a_1929_n140# a_149_n140#
+ a_n1097_n140# a_2343_n194# a_1275_n194# a_29_n194# a_n2107_n194# a_n2165_n140# a_n3233_n140#
+ a_3411_n194# a_n683_n194# a_1395_n140# a_3531_n140# a_2463_n140# a_n741_n140# a_2699_n194#
+ a_741_n194# a_n3589_n140# a_n1751_n194# a_861_n140# a_1097_n194# a_2819_n140# a_3233_n194#
+ a_2165_n194# a_n3055_n140# a_n505_n194# a_2285_n140# a_n563_n140# a_563_n194# a_3353_n140#
+ a_1217_n140# a_n1573_n194# a_n2641_n194# a_683_n140# a_n919_n140# a_n1631_n140#
+ a_919_n194# a_3055_n194# a_n2997_n194# a_n1987_n140# a_n327_n194# a_n1929_n194#
+ a_3175_n140# a_1039_n140# a_n385_n140# a_385_n194# a_2107_n140# a_n1395_n194# a_n2463_n194#
+ a_n3531_n194# a_505_n140# a_n1453_n140# a_1631_n194# a_n2521_n140# VSUBS
X0 a_n29_n140# a_n149_n194# a_n207_n140# VSUBS sky130_fd_pr__nfet_01v8 ad=4.06e+11p pd=3.38e+06u as=4.06e+11p ps=3.38e+06u w=1.4e+06u l=600000u
X1 a_n2165_n140# a_n2285_n194# a_n2343_n140# VSUBS sky130_fd_pr__nfet_01v8 ad=4.06e+11p pd=3.38e+06u as=4.06e+11p ps=3.38e+06u w=1.4e+06u l=600000u
X2 a_n563_n140# a_n683_n194# a_n741_n140# VSUBS sky130_fd_pr__nfet_01v8 ad=4.06e+11p pd=3.38e+06u as=4.06e+11p ps=3.38e+06u w=1.4e+06u l=600000u
X3 a_n919_n140# a_n1039_n194# a_n1097_n140# VSUBS sky130_fd_pr__nfet_01v8 ad=4.06e+11p pd=3.38e+06u as=4.06e+11p ps=3.38e+06u w=1.4e+06u l=600000u
X4 a_505_n140# a_385_n194# a_327_n140# VSUBS sky130_fd_pr__nfet_01v8 ad=4.06e+11p pd=3.38e+06u as=4.06e+11p ps=3.38e+06u w=1.4e+06u l=600000u
X5 a_3175_n140# a_3055_n194# a_2997_n140# VSUBS sky130_fd_pr__nfet_01v8 ad=4.06e+11p pd=3.38e+06u as=4.06e+11p ps=3.38e+06u w=1.4e+06u l=600000u
X6 a_n3233_n140# a_n3353_n194# a_n3411_n140# VSUBS sky130_fd_pr__nfet_01v8 ad=4.06e+11p pd=3.38e+06u as=4.06e+11p ps=3.38e+06u w=1.4e+06u l=600000u
X7 a_2997_n140# a_2877_n194# a_2819_n140# VSUBS sky130_fd_pr__nfet_01v8 ad=0p pd=0u as=4.06e+11p ps=3.38e+06u w=1.4e+06u l=600000u
X8 a_n1987_n140# a_n2107_n194# a_n2165_n140# VSUBS sky130_fd_pr__nfet_01v8 ad=4.06e+11p pd=3.38e+06u as=0p ps=0u w=1.4e+06u l=600000u
X9 a_n385_n140# a_n505_n194# a_n563_n140# VSUBS sky130_fd_pr__nfet_01v8 ad=4.06e+11p pd=3.38e+06u as=0p ps=0u w=1.4e+06u l=600000u
X10 a_1395_n140# a_1275_n194# a_1217_n140# VSUBS sky130_fd_pr__nfet_01v8 ad=4.06e+11p pd=3.38e+06u as=4.06e+11p ps=3.38e+06u w=1.4e+06u l=600000u
X11 a_n1809_n140# a_n1929_n194# a_n1987_n140# VSUBS sky130_fd_pr__nfet_01v8 ad=4.06e+11p pd=3.38e+06u as=0p ps=0u w=1.4e+06u l=600000u
X12 a_n1453_n140# a_n1573_n194# a_n1631_n140# VSUBS sky130_fd_pr__nfet_01v8 ad=4.06e+11p pd=3.38e+06u as=4.06e+11p ps=3.38e+06u w=1.4e+06u l=600000u
X13 a_327_n140# a_207_n194# a_149_n140# VSUBS sky130_fd_pr__nfet_01v8 ad=0p pd=0u as=4.06e+11p ps=3.38e+06u w=1.4e+06u l=600000u
X14 a_2463_n140# a_2343_n194# a_2285_n140# VSUBS sky130_fd_pr__nfet_01v8 ad=4.06e+11p pd=3.38e+06u as=4.06e+11p ps=3.38e+06u w=1.4e+06u l=600000u
X15 a_n2521_n140# a_n2641_n194# a_n2699_n140# VSUBS sky130_fd_pr__nfet_01v8 ad=4.06e+11p pd=3.38e+06u as=4.06e+11p ps=3.38e+06u w=1.4e+06u l=600000u
X16 a_149_n140# a_29_n194# a_n29_n140# VSUBS sky130_fd_pr__nfet_01v8 ad=0p pd=0u as=0p ps=0u w=1.4e+06u l=600000u
X17 a_861_n140# a_741_n194# a_683_n140# VSUBS sky130_fd_pr__nfet_01v8 ad=4.06e+11p pd=3.38e+06u as=4.06e+11p ps=3.38e+06u w=1.4e+06u l=600000u
X18 a_3531_n140# a_3411_n194# a_3353_n140# VSUBS sky130_fd_pr__nfet_01v8 ad=4.06e+11p pd=3.38e+06u as=4.06e+11p ps=3.38e+06u w=1.4e+06u l=600000u
X19 a_1751_n140# a_1631_n194# a_1573_n140# VSUBS sky130_fd_pr__nfet_01v8 ad=4.06e+11p pd=3.38e+06u as=4.06e+11p ps=3.38e+06u w=1.4e+06u l=600000u
X20 a_n3055_n140# a_n3175_n194# a_n3233_n140# VSUBS sky130_fd_pr__nfet_01v8 ad=4.06e+11p pd=3.38e+06u as=0p ps=0u w=1.4e+06u l=600000u
X21 a_2819_n140# a_2699_n194# a_2641_n140# VSUBS sky130_fd_pr__nfet_01v8 ad=0p pd=0u as=4.06e+11p ps=3.38e+06u w=1.4e+06u l=600000u
X22 a_n2877_n140# a_n2997_n194# a_n3055_n140# VSUBS sky130_fd_pr__nfet_01v8 ad=4.06e+11p pd=3.38e+06u as=0p ps=0u w=1.4e+06u l=600000u
X23 a_n207_n140# a_n327_n194# a_n385_n140# VSUBS sky130_fd_pr__nfet_01v8 ad=0p pd=0u as=0p ps=0u w=1.4e+06u l=600000u
X24 a_1217_n140# a_1097_n194# a_1039_n140# VSUBS sky130_fd_pr__nfet_01v8 ad=0p pd=0u as=4.06e+11p ps=3.38e+06u w=1.4e+06u l=600000u
X25 a_n1275_n140# a_n1395_n194# a_n1453_n140# VSUBS sky130_fd_pr__nfet_01v8 ad=4.06e+11p pd=3.38e+06u as=0p ps=0u w=1.4e+06u l=600000u
X26 a_2285_n140# a_2165_n194# a_2107_n140# VSUBS sky130_fd_pr__nfet_01v8 ad=0p pd=0u as=4.06e+11p ps=3.38e+06u w=1.4e+06u l=600000u
X27 a_n2699_n140# a_n2819_n194# a_n2877_n140# VSUBS sky130_fd_pr__nfet_01v8 ad=0p pd=0u as=0p ps=0u w=1.4e+06u l=600000u
X28 a_n2343_n140# a_n2463_n194# a_n2521_n140# VSUBS sky130_fd_pr__nfet_01v8 ad=0p pd=0u as=0p ps=0u w=1.4e+06u l=600000u
X29 a_n741_n140# a_n861_n194# a_n919_n140# VSUBS sky130_fd_pr__nfet_01v8 ad=0p pd=0u as=0p ps=0u w=1.4e+06u l=600000u
X30 a_2107_n140# a_1987_n194# a_1929_n140# VSUBS sky130_fd_pr__nfet_01v8 ad=0p pd=0u as=4.06e+11p ps=3.38e+06u w=1.4e+06u l=600000u
X31 a_n1097_n140# a_n1217_n194# a_n1275_n140# VSUBS sky130_fd_pr__nfet_01v8 ad=0p pd=0u as=0p ps=0u w=1.4e+06u l=600000u
X32 a_683_n140# a_563_n194# a_505_n140# VSUBS sky130_fd_pr__nfet_01v8 ad=0p pd=0u as=0p ps=0u w=1.4e+06u l=600000u
X33 a_1039_n140# a_919_n194# a_861_n140# VSUBS sky130_fd_pr__nfet_01v8 ad=0p pd=0u as=0p ps=0u w=1.4e+06u l=600000u
X34 a_3353_n140# a_3233_n194# a_3175_n140# VSUBS sky130_fd_pr__nfet_01v8 ad=0p pd=0u as=0p ps=0u w=1.4e+06u l=600000u
X35 a_n3411_n140# a_n3531_n194# a_n3589_n140# VSUBS sky130_fd_pr__nfet_01v8 ad=0p pd=0u as=4.06e+11p ps=3.38e+06u w=1.4e+06u l=600000u
X36 a_1573_n140# a_1453_n194# a_1395_n140# VSUBS sky130_fd_pr__nfet_01v8 ad=0p pd=0u as=0p ps=0u w=1.4e+06u l=600000u
X37 a_1929_n140# a_1809_n194# a_1751_n140# VSUBS sky130_fd_pr__nfet_01v8 ad=0p pd=0u as=0p ps=0u w=1.4e+06u l=600000u
X38 a_n1631_n140# a_n1751_n194# a_n1809_n140# VSUBS sky130_fd_pr__nfet_01v8 ad=0p pd=0u as=0p ps=0u w=1.4e+06u l=600000u
X39 a_2641_n140# a_2521_n194# a_2463_n140# VSUBS sky130_fd_pr__nfet_01v8 ad=0p pd=0u as=0p ps=0u w=1.4e+06u l=600000u
C0 a_n3353_n194# a_n2107_n194# 0.01fF
C1 a_n2285_n194# a_n3175_n194# 0.01fF
C2 a_3175_n140# a_3353_n140# 0.13fF
C3 a_2997_n140# a_3531_n140# 0.04fF
C4 a_n861_n194# a_563_n194# 0.01fF
C5 a_1751_n140# a_3175_n140# 0.01fF
C6 a_1039_n140# a_683_n140# 0.06fF
C7 a_1929_n140# a_2997_n140# 0.02fF
C8 a_1453_n194# a_2877_n194# 0.01fF
C9 a_1573_n140# a_1751_n140# 0.13fF
C10 a_2997_n140# a_2463_n140# 0.04fF
C11 a_3175_n140# a_2285_n140# 0.02fF
C12 a_n207_n140# a_683_n140# 0.02fF
C13 a_1453_n194# a_1987_n194# 0.02fF
C14 a_1631_n194# a_1809_n194# 0.10fF
C15 a_1573_n140# a_2285_n140# 0.03fF
C16 a_3233_n194# a_2343_n194# 0.01fF
C17 a_3055_n194# a_2521_n194# 0.02fF
C18 a_n741_n140# a_505_n140# 0.02fF
C19 a_n683_n194# a_n2107_n194# 0.01fF
C20 a_207_n194# a_741_n194# 0.02fF
C21 a_n2997_n194# a_n2641_n194# 0.03fF
C22 a_n327_n194# a_n1929_n194# 0.01fF
C23 a_n1751_n194# a_n1395_n194# 0.03fF
C24 a_327_n140# a_683_n140# 0.06fF
C25 a_n861_n194# a_n1751_n194# 0.01fF
C26 a_n149_n194# a_1275_n194# 0.01fF
C27 a_1573_n140# a_861_n140# 0.03fF
C28 a_n2641_n194# a_n3531_n194# 0.01fF
C29 a_1453_n194# a_1097_n194# 0.03fF
C30 a_n2641_n194# a_n3175_n194# 0.02fF
C31 a_1631_n194# a_2343_n194# 0.01fF
C32 a_2165_n194# a_919_n194# 0.01fF
C33 a_1631_n194# a_563_n194# 0.01fF
C34 a_3353_n140# a_3531_n140# 0.13fF
C35 a_1573_n140# a_149_n140# 0.01fF
C36 a_2107_n140# a_3175_n140# 0.02fF
C37 a_1929_n140# a_3353_n140# 0.01fF
C38 a_1395_n140# a_683_n140# 0.03fF
C39 a_n2819_n194# a_n1217_n194# 0.01fF
C40 a_n505_n194# a_563_n194# 0.01fF
C41 a_n683_n194# a_n1039_n194# 0.03fF
C42 a_1275_n194# a_919_n194# 0.03fF
C43 a_1751_n140# a_1929_n140# 0.13fF
C44 a_3175_n140# a_2641_n140# 0.04fF
C45 a_2997_n140# a_2819_n140# 0.13fF
C46 a_3531_n140# a_2285_n140# 0.02fF
C47 a_1573_n140# a_2107_n140# 0.04fF
C48 a_3353_n140# a_2463_n140# 0.02fF
C49 a_1751_n140# a_2463_n140# 0.03fF
C50 a_1573_n140# a_2641_n140# 0.02fF
C51 a_1929_n140# a_2285_n140# 0.06fF
C52 a_29_n194# a_563_n194# 0.02fF
C53 a_n2463_n194# a_n1929_n194# 0.02fF
C54 a_n683_n194# a_207_n194# 0.01fF
C55 a_1809_n194# a_2521_n194# 0.01fF
C56 a_207_n194# a_1097_n194# 0.01fF
C57 a_3233_n194# a_2699_n194# 0.02fF
C58 a_3055_n194# a_2877_n194# 0.10fF
C59 a_3411_n194# a_2521_n194# 0.01fF
C60 a_3055_n194# a_1987_n194# 0.01fF
C61 a_2285_n140# a_2463_n140# 0.13fF
C62 a_n2997_n194# a_n1751_n194# 0.01fF
C63 a_1275_n194# a_385_n194# 0.01fF
C64 a_n149_n194# a_n1573_n194# 0.01fF
C65 a_1929_n140# a_861_n140# 0.02fF
C66 a_n2107_n194# a_n1929_n194# 0.10fF
C67 a_n1751_n194# a_n505_n194# 0.01fF
C68 a_n741_n140# a_683_n140# 0.01fF
C69 a_861_n140# a_2463_n140# 0.01fF
C70 a_n1751_n194# a_n3175_n194# 0.01fF
C71 a_1631_n194# a_2699_n194# 0.01fF
C72 a_505_n140# a_683_n140# 0.13fF
C73 a_n1573_n194# a_n1217_n194# 0.03fF
C74 a_n2285_n194# a_n3353_n194# 0.01fF
C75 a_2343_n194# a_2521_n194# 0.10fF
C76 a_1809_n194# a_741_n194# 0.01fF
C77 a_1573_n140# a_1039_n140# 0.04fF
C78 a_2107_n140# a_3531_n140# 0.01fF
C79 a_n327_n194# a_n1039_n194# 0.01fF
C80 a_n2463_n194# a_n2107_n194# 0.03fF
C81 a_3531_n140# a_2641_n140# 0.02fF
C82 a_3353_n140# a_2819_n140# 0.04fF
C83 a_1929_n140# a_2107_n140# 0.13fF
C84 a_n2819_n194# a_n1395_n194# 0.01fF
C85 a_207_n194# a_n327_n194# 0.02fF
C86 a_n683_n194# a_n2285_n194# 0.01fF
C87 a_1929_n140# a_2641_n140# 0.03fF
C88 a_1751_n140# a_2819_n140# 0.02fF
C89 a_2107_n140# a_2463_n140# 0.06fF
C90 a_1809_n194# a_2877_n194# 0.01fF
C91 a_n3589_n140# a_n2699_n140# 0.02fF
C92 a_3411_n194# a_2877_n194# 0.02fF
C93 a_1573_n140# a_327_n140# 0.02fF
C94 a_3233_n194# a_2165_n194# 0.01fF
C95 a_3411_n194# a_1987_n194# 0.01fF
C96 a_1809_n194# a_1987_n194# 0.10fF
C97 a_2285_n140# a_2819_n140# 0.04fF
C98 a_2463_n140# a_2641_n140# 0.13fF
C99 a_n1929_n194# a_n1039_n194# 0.01fF
C100 a_n385_n140# a_861_n140# 0.02fF
C101 a_2343_n194# a_741_n194# 0.01fF
C102 a_563_n194# a_741_n194# 0.10fF
C103 a_n2641_n194# a_n3353_n194# 0.01fF
C104 a_n149_n194# a_n1217_n194# 0.01fF
C105 a_1631_n194# a_2165_n194# 0.02fF
C106 a_1809_n194# a_1097_n194# 0.01fF
C107 a_2521_n194# a_2699_n194# 0.10fF
C108 a_2343_n194# a_2877_n194# 0.02fF
C109 a_n1987_n140# a_n563_n140# 0.01fF
C110 a_n149_n194# a_919_n194# 0.01fF
C111 a_n385_n140# a_149_n140# 0.04fF
C112 a_n563_n140# a_n385_n140# 0.13fF
C113 a_1751_n140# a_1217_n140# 0.04fF
C114 a_1573_n140# a_1395_n140# 0.13fF
C115 a_1929_n140# a_1039_n140# 0.02fF
C116 a_n1573_n194# a_n1395_n194# 0.10fF
C117 a_n861_n194# a_n1573_n194# 0.01fF
C118 a_1987_n194# a_2343_n194# 0.03fF
C119 a_n2463_n194# a_n1039_n194# 0.01fF
C120 a_1217_n140# a_2285_n140# 0.02fF
C121 a_1039_n140# a_2463_n140# 0.01fF
C122 a_1275_n194# a_1631_n194# 0.03fF
C123 a_n2997_n194# a_n2819_n194# 0.10fF
C124 a_1987_n194# a_563_n194# 0.01fF
C125 a_n149_n194# a_385_n194# 0.02fF
C126 a_n3233_n140# a_n3589_n140# 0.06fF
C127 a_n2107_n194# a_n1039_n194# 0.01fF
C128 a_2107_n140# a_2819_n140# 0.03fF
C129 a_n3589_n140# a_n2343_n140# 0.02fF
C130 a_n2819_n194# a_n3531_n194# 0.01fF
C131 a_1929_n140# a_327_n140# 0.01fF
C132 a_861_n140# a_1217_n140# 0.06fF
C133 a_n1987_n140# a_n2699_n140# 0.03fF
C134 a_1097_n194# a_2343_n194# 0.01fF
C135 a_n563_n140# a_n1275_n140# 0.03fF
C136 a_n1275_n140# a_149_n140# 0.01fF
C137 a_2641_n140# a_2819_n140# 0.13fF
C138 a_1275_n194# a_29_n194# 0.01fF
C139 a_n2819_n194# a_n3175_n194# 0.03fF
C140 a_n29_n140# a_861_n140# 0.02fF
C141 a_n1217_n194# a_385_n194# 0.01fF
C142 a_n2285_n194# a_n1929_n194# 0.03fF
C143 a_n683_n194# a_563_n194# 0.01fF
C144 a_1097_n194# a_563_n194# 0.02fF
C145 a_1573_n140# a_505_n140# 0.02fF
C146 a_n1751_n194# a_n3353_n194# 0.01fF
C147 a_1453_n194# a_207_n194# 0.01fF
C148 a_919_n194# a_385_n194# 0.02fF
C149 a_n385_n140# a_1039_n140# 0.01fF
C150 a_n149_n194# a_n1395_n194# 0.01fF
C151 a_1217_n140# a_149_n140# 0.02fF
C152 a_n3411_n140# a_n2699_n140# 0.03fF
C153 a_n149_n194# a_n861_n194# 0.01fF
C154 a_n1987_n140# a_n1809_n140# 0.13fF
C155 a_n2997_n194# a_n1573_n194# 0.01fF
C156 a_n2699_n140# a_n1275_n140# 0.01fF
C157 a_n1631_n140# a_n563_n140# 0.02fF
C158 a_n1809_n140# a_n385_n140# 0.01fF
C159 a_2699_n194# a_2877_n194# 0.10fF
C160 a_n2699_n140# a_n2521_n140# 0.13fF
C161 a_n385_n140# a_n207_n140# 0.13fF
C162 a_n29_n140# a_149_n140# 0.13fF
C163 a_n563_n140# a_n29_n140# 0.04fF
C164 a_2107_n140# a_1217_n140# 0.02fF
C165 a_2165_n194# a_2521_n194# 0.03fF
C166 a_1929_n140# a_1395_n140# 0.04fF
C167 a_1987_n194# a_2699_n194# 0.01fF
C168 a_1217_n140# a_2641_n140# 0.01fF
C169 a_1395_n140# a_2463_n140# 0.02fF
C170 a_n505_n194# a_n1573_n194# 0.01fF
C171 a_n2285_n194# a_n2463_n194# 0.10fF
C172 a_n683_n194# a_n1751_n194# 0.01fF
C173 a_n1217_n194# a_n1395_n194# 0.10fF
C174 a_1275_n194# a_2521_n194# 0.01fF
C175 a_n861_n194# a_n1217_n194# 0.03fF
C176 a_n1573_n194# a_n3175_n194# 0.01fF
C177 a_207_n194# a_n1039_n194# 0.01fF
C178 a_n385_n140# a_327_n140# 0.03fF
C179 a_n2877_n140# a_n3589_n140# 0.03fF
C180 a_1453_n194# a_3055_n194# 0.01fF
C181 a_n3411_n140# a_n1809_n140# 0.01fF
C182 a_n3233_n140# a_n1987_n140# 0.02fF
C183 a_29_n194# a_n1573_n194# 0.01fF
C184 a_n1809_n140# a_n1275_n140# 0.04fF
C185 a_n1987_n140# a_n1097_n140# 0.02fF
C186 a_n207_n140# a_n1275_n140# 0.02fF
C187 a_n1631_n140# a_n2699_n140# 0.02fF
C188 a_n919_n140# a_149_n140# 0.02fF
C189 a_n385_n140# a_n1097_n140# 0.03fF
C190 a_n1987_n140# a_n2343_n140# 0.06fF
C191 a_n1809_n140# a_n2521_n140# 0.03fF
C192 a_n563_n140# a_n919_n140# 0.06fF
C193 a_n2641_n194# a_n1929_n194# 0.01fF
C194 a_n2285_n194# a_n2107_n194# 0.10fF
C195 a_1097_n194# a_2699_n194# 0.01fF
C196 a_n2165_n140# a_n563_n140# 0.01fF
C197 a_n327_n194# a_563_n194# 0.01fF
C198 a_2165_n194# a_741_n194# 0.01fF
C199 a_n861_n194# a_385_n194# 0.01fF
C200 a_1929_n140# a_505_n140# 0.01fF
C201 a_1039_n140# a_1217_n140# 0.13fF
C202 a_n1275_n140# a_327_n140# 0.01fF
C203 a_n3411_n140# a_n3233_n140# 0.13fF
C204 a_1275_n194# a_741_n194# 0.02fF
C205 a_n3233_n140# a_n2521_n140# 0.03fF
C206 a_n3411_n140# a_n2343_n140# 0.02fF
C207 a_n3055_n140# a_n2699_n140# 0.06fF
C208 a_n207_n140# a_1217_n140# 0.01fF
C209 a_n29_n140# a_1039_n140# 0.02fF
C210 a_n1275_n140# a_n1097_n140# 0.13fF
C211 a_n1809_n140# a_n1631_n140# 0.13fF
C212 a_n1987_n140# a_n1453_n140# 0.04fF
C213 a_n2521_n140# a_n1097_n140# 0.01fF
C214 a_n2343_n140# a_n1275_n140# 0.02fF
C215 a_n1631_n140# a_n207_n140# 0.01fF
C216 a_n1453_n140# a_n385_n140# 0.02fF
C217 a_n2521_n140# a_n2343_n140# 0.13fF
C218 a_n2699_n140# a_n2165_n140# 0.04fF
C219 a_n207_n140# a_n29_n140# 0.13fF
C220 a_n2641_n194# a_n2463_n194# 0.10fF
C221 a_2165_n194# a_2877_n194# 0.01fF
C222 a_n149_n194# a_n505_n194# 0.03fF
C223 a_1573_n140# a_683_n140# 0.02fF
C224 a_1987_n194# a_2165_n194# 0.10fF
C225 a_1395_n140# a_2819_n140# 0.01fF
C226 a_n1751_n194# a_n327_n194# 0.01fF
C227 a_1217_n140# a_327_n140# 0.02fF
C228 a_n149_n194# a_29_n194# 0.10fF
C229 a_1275_n194# a_2877_n194# 0.01fF
C230 a_n2285_n194# a_n1039_n194# 0.01fF
C231 a_n29_n140# a_327_n140# 0.06fF
C232 a_n2641_n194# a_n2107_n194# 0.02fF
C233 a_1275_n194# a_1987_n194# 0.01fF
C234 a_1453_n194# a_1809_n194# 0.03fF
C235 a_n2877_n140# a_n1987_n140# 0.02fF
C236 a_n3055_n140# a_n1809_n140# 0.02fF
C237 a_n3233_n140# a_n1631_n140# 0.01fF
C238 a_n861_n194# a_n1395_n194# 0.02fF
C239 a_n505_n194# a_n1217_n194# 0.01fF
C240 a_n1631_n140# a_n1097_n140# 0.04fF
C241 a_n1987_n140# a_n741_n140# 0.02fF
C242 a_n1453_n140# a_n1275_n140# 0.13fF
C243 a_n1809_n140# a_n919_n140# 0.02fF
C244 a_1631_n194# a_919_n194# 0.01fF
C245 a_n1809_n140# a_n2165_n140# 0.06fF
C246 a_n207_n140# a_n919_n140# 0.03fF
C247 a_n2819_n194# a_n3353_n194# 0.02fF
C248 a_n1631_n140# a_n2343_n140# 0.03fF
C249 a_n385_n140# a_n741_n140# 0.06fF
C250 a_n1453_n140# a_n2521_n140# 0.02fF
C251 a_n29_n140# a_n1097_n140# 0.02fF
C252 a_n1751_n194# a_n1929_n194# 0.10fF
C253 a_2165_n194# a_1097_n194# 0.01fF
C254 a_n385_n140# a_505_n140# 0.02fF
C255 a_n505_n194# a_919_n194# 0.01fF
C256 a_29_n194# a_n1217_n194# 0.01fF
C257 a_1631_n194# a_385_n194# 0.01fF
C258 a_1217_n140# a_1395_n140# 0.13fF
C259 a_n919_n140# a_327_n140# 0.02fF
C260 a_n3411_n140# a_n2877_n140# 0.04fF
C261 a_n3233_n140# a_n3055_n140# 0.13fF
C262 a_1275_n194# a_1097_n194# 0.10fF
C263 a_919_n194# a_29_n194# 0.01fF
C264 a_n2877_n140# a_n1275_n140# 0.01fF
C265 a_1453_n194# a_2343_n194# 0.01fF
C266 a_n505_n194# a_385_n194# 0.01fF
C267 a_n3055_n140# a_n2343_n140# 0.03fF
C268 a_n29_n140# a_1395_n140# 0.01fF
C269 a_n2877_n140# a_n2521_n140# 0.06fF
C270 a_n3233_n140# a_n2165_n140# 0.02fF
C271 a_n1631_n140# a_n1453_n140# 0.13fF
C272 a_n1275_n140# a_n741_n140# 0.04fF
C273 a_n1097_n140# a_n919_n140# 0.13fF
C274 a_n2165_n140# a_n1097_n140# 0.02fF
C275 a_n2343_n140# a_n919_n140# 0.01fF
C276 a_n1453_n140# a_n29_n140# 0.01fF
C277 a_207_n194# a_1809_n194# 0.01fF
C278 a_n2343_n140# a_n2165_n140# 0.13fF
C279 a_n1751_n194# a_n2463_n194# 0.01fF
C280 a_1929_n140# a_683_n140# 0.02fF
C281 a_1453_n194# a_563_n194# 0.01fF
C282 a_29_n194# a_385_n194# 0.03fF
C283 a_n2641_n194# a_n1039_n194# 0.01fF
C284 a_n2997_n194# a_n1395_n194# 0.01fF
C285 a_n1751_n194# a_n2107_n194# 0.03fF
C286 a_n3055_n140# a_n1453_n140# 0.01fF
C287 a_n2877_n140# a_n1631_n140# 0.02fF
C288 a_n1453_n140# a_n919_n140# 0.04fF
C289 a_n1631_n140# a_n741_n140# 0.02fF
C290 a_n29_n140# a_n741_n140# 0.03fF
C291 a_n1453_n140# a_n2165_n140# 0.03fF
C292 a_1217_n140# a_505_n140# 0.03fF
C293 a_3055_n194# a_1809_n194# 0.01fF
C294 a_3055_n194# a_3411_n194# 0.03fF
C295 a_n505_n194# a_n1395_n194# 0.01fF
C296 a_n861_n194# a_n505_n194# 0.03fF
C297 a_563_n194# a_n1039_n194# 0.01fF
C298 a_919_n194# a_2521_n194# 0.01fF
C299 a_n149_n194# a_741_n194# 0.01fF