* NGSPICE file created from ota_flat.ext - technology: sky130A

.subckt ota_flat ip in op on i_bias bias_e bias_a bias_b bias_c bias_d cmc VDD VSS
X0 bias_d a_n1110_n5852# a_n1110_n5852# VSS sky130_fd_pr__nfet_01v8 ad=1.4616e+13p pd=1.2168e+08u as=1.1368e+13p ps=9.464e+07u w=1.4e+06u l=600000u
X1 a_12106_n11502# bias_e VSS VSS sky130_fd_pr__nfet_01v8 ad=8.12e+11p pd=6.76e+06u as=8.323e+13p ps=6.929e+08u w=1.4e+06u l=600000u
X2 a_n5928_n13620# bias_c op VDD sky130_fd_pr__pfet_01v8 ad=1.0556e+13p pd=8.788e+07u as=4.872e+12p ps=4.056e+07u w=1.4e+06u l=600000u
X3 a_12398_n9962# bias_e bias_e VSS sky130_fd_pr__nfet_01v8 ad=8.12e+11p pd=6.76e+06u as=8.526e+12p ps=7.098e+07u w=1.4e+06u l=600000u
X4 VDD VDD VDD VDD sky130_fd_pr__pfet_01v8 ad=2.3954e+13p pd=1.9942e+08u as=0p ps=0u w=1.4e+06u l=600000u
X5 a_n5928_n12940# bias_b VDD VDD sky130_fd_pr__pfet_01v8_lvt ad=1.0556e+13p pd=8.788e+07u as=0p ps=0u w=1.4e+06u l=600000u
X6 a_n1651_n13400# bias_d on VSS sky130_fd_pr__nfet_01v8 ad=1.624e+13p pd=1.352e+08u as=8.932e+12p ps=7.436e+07u w=1.4e+06u l=600000u
X7 a_n1651_n13400# bias_a VSS VSS sky130_fd_pr__nfet_01v8 ad=0p pd=0u as=0p ps=0u w=1.4e+06u l=600000u
X8 VDD VDD a_n5928_n13620# VDD sky130_fd_pr__pfet_01v8 ad=0p pd=0u as=0p ps=0u w=1.4e+06u l=600000u
X9 bias_d bias_d bias_d VSS sky130_fd_pr__nfet_01v8 ad=0p pd=0u as=0p ps=0u w=1.4e+06u l=600000u
X10 a_n5928_n12940# ip a_n5580_n13620# VSS sky130_fd_pr__nfet_01v8_lvt ad=3.48e+12p pd=2.98e+07u as=4.7212e+13p ps=3.9404e+08u w=1.2e+06u l=200000u
X11 a_n5580_n13620# bias_a VSS VSS sky130_fd_pr__nfet_01v8 ad=0p pd=0u as=0p ps=0u w=1.4e+06u l=600000u
X12 a_n2185_n13400# bias_d bias_a VSS sky130_fd_pr__nfet_01v8 ad=1.218e+13p pd=1.014e+08u as=6.496e+12p ps=5.408e+07u w=1.4e+06u l=600000u
X13 a_n5580_n13620# in a_n5928_n13620# VSS sky130_fd_pr__nfet_01v8_lvt ad=0p pd=0u as=3.48e+12p ps=2.98e+07u w=1.2e+06u l=200000u
X14 a_n5580_n13620# bias_a VSS VSS sky130_fd_pr__nfet_01v8 ad=0p pd=0u as=0p ps=0u w=1.4e+06u l=600000u
X15 a_n5580_n13620# a_n5580_n13620# a_n5580_n13620# VSS sky130_fd_pr__nfet_01v8 ad=0p pd=0u as=0p ps=0u w=1.4e+06u l=600000u
X16 VSS VSS a_n2185_n13400# VSS sky130_fd_pr__nfet_01v8 ad=0p pd=0u as=0p ps=0u w=1.4e+06u l=600000u
X17 a_n6314_n4140# bias_b VDD VDD sky130_fd_pr__pfet_01v8_lvt ad=4.06e+12p pd=3.38e+07u as=0p ps=0u w=1.4e+06u l=600000u
X18 op VSS VSS VSS sky130_fd_pr__nfet_01v8 ad=8.932e+12p pd=7.436e+07u as=0p ps=0u w=1.4e+06u l=600000u
X19 VSS bias_a a_n5580_n13620# VSS sky130_fd_pr__nfet_01v8 ad=0p pd=0u as=0p ps=0u w=1.4e+06u l=600000u
X20 VSS cmc a_n5580_n13620# VSS sky130_fd_pr__nfet_01v8 ad=0p pd=0u as=0p ps=0u w=1.4e+06u l=600000u
X21 VSS bias_a a_n1651_n11400# VSS sky130_fd_pr__nfet_01v8 ad=0p pd=0u as=1.5834e+13p ps=1.3182e+08u w=1.4e+06u l=600000u
X22 bias_b bias_b bias_c VSS sky130_fd_pr__nfet_01v8_lvt ad=1.624e+13p pd=1.352e+08u as=2.1112e+13p ps=1.7576e+08u w=1.4e+06u l=600000u
X23 a_n1651_n11400# bias_d op VSS sky130_fd_pr__nfet_01v8 ad=0p pd=0u as=0p ps=0u w=1.4e+06u l=600000u
X24 a_n6314_n5010# bias_b VDD VDD sky130_fd_pr__pfet_01v8_lvt ad=4.872e+12p pd=4.056e+07u as=0p ps=0u w=1.4e+06u l=600000u
X25 a_n5580_n13620# bias_a VSS VSS sky130_fd_pr__nfet_01v8 ad=0p pd=0u as=0p ps=0u w=1.4e+06u l=600000u
X26 a_n1651_n13400# VSS VSS VSS sky130_fd_pr__nfet_01v8 ad=0p pd=0u as=0p ps=0u w=1.4e+06u l=600000u
X27 bias_c bias_c bias_c VSS sky130_fd_pr__nfet_01v8 ad=0p pd=0u as=0p ps=0u w=1.4e+06u l=600000u
X28 a_n1110_n5852# a_n1110_n5852# bias_d VSS sky130_fd_pr__nfet_01v8 ad=0p pd=0u as=0p ps=0u w=1.4e+06u l=600000u
X29 bias_a bias_d a_n2185_n13400# VSS sky130_fd_pr__nfet_01v8 ad=0p pd=0u as=0p ps=0u w=1.4e+06u l=600000u
X30 a_n6314_n5010# bias_b VDD VDD sky130_fd_pr__pfet_01v8_lvt ad=0p pd=0u as=0p ps=0u w=1.4e+06u l=600000u
X31 a_n1651_n11400# bias_a VSS VSS sky130_fd_pr__nfet_01v8 ad=0p pd=0u as=0p ps=0u w=1.4e+06u l=600000u
X32 a_n5928_n13620# bias_b VDD VDD sky130_fd_pr__pfet_01v8_lvt ad=0p pd=0u as=0p ps=0u w=1.4e+06u l=600000u
X33 a_n6314_n5010# a_n6314_n5010# a_n6314_n5010# VDD sky130_fd_pr__pfet_01v8 ad=0p pd=0u as=0p ps=0u w=1.4e+06u l=600000u
X34 VSS VSS a_n1651_n13400# VSS sky130_fd_pr__nfet_01v8 ad=0p pd=0u as=0p ps=0u w=1.4e+06u l=600000u
X35 a_n1651_n11400# bias_d op VSS sky130_fd_pr__nfet_01v8 ad=0p pd=0u as=0p ps=0u w=1.4e+06u l=600000u
X36 a_n5928_n13620# bias_c op VDD sky130_fd_pr__pfet_01v8 ad=0p pd=0u as=0p ps=0u w=1.4e+06u l=600000u
X37 VSS i_bias i_bias VSS sky130_fd_pr__nfet_01v8 ad=0p pd=0u as=4.872e+12p ps=4.056e+07u w=1.4e+06u l=600000u
X38 a_n6314_n4140# a_n6314_n4140# a_n6314_n4140# VDD sky130_fd_pr__pfet_01v8_lvt ad=0p pd=0u as=0p ps=0u w=1.4e+06u l=600000u
X39 bias_d a_n1110_n5852# a_n1110_n5852# VSS sky130_fd_pr__nfet_01v8 ad=0p pd=0u as=0p ps=0u w=1.4e+06u l=600000u
X40 on bias_d a_n1651_n13400# VSS sky130_fd_pr__nfet_01v8 ad=0p pd=0u as=0p ps=0u w=1.4e+06u l=600000u
X41 VSS bias_a a_n5580_n13620# VSS sky130_fd_pr__nfet_01v8 ad=0p pd=0u as=0p ps=0u w=1.4e+06u l=600000u
X42 VSS cmc a_n5580_n13620# VSS sky130_fd_pr__nfet_01v8 ad=0p pd=0u as=0p ps=0u w=1.4e+06u l=600000u
X43 a_n5928_n12940# bias_c on VDD sky130_fd_pr__pfet_01v8 ad=0p pd=0u as=4.872e+12p ps=4.056e+07u w=1.4e+06u l=600000u
X44 a_n5580_n13620# cmc VSS VSS sky130_fd_pr__nfet_01v8 ad=0p pd=0u as=0p ps=0u w=1.4e+06u l=600000u
X45 a_n1651_n13400# bias_d on VSS sky130_fd_pr__nfet_01v8 ad=0p pd=0u as=0p ps=0u w=1.4e+06u l=600000u
X46 bias_c bias_b bias_b VSS sky130_fd_pr__nfet_01v8_lvt ad=0p pd=0u as=0p ps=0u w=1.4e+06u l=600000u
X47 bias_d a_n1110_n5852# a_n1110_n5852# VSS sky130_fd_pr__nfet_01v8 ad=0p pd=0u as=0p ps=0u w=1.4e+06u l=600000u
X48 a_n1651_n11400# bias_d op VSS sky130_fd_pr__nfet_01v8 ad=0p pd=0u as=0p ps=0u w=1.4e+06u l=600000u
X49 op bias_d a_n1651_n11400# VSS sky130_fd_pr__nfet_01v8 ad=0p pd=0u as=0p ps=0u w=1.4e+06u l=600000u
X50 a_n1110_n5852# a_n1110_n5852# a_n1110_n5852# VSS sky130_fd_pr__nfet_01v8 ad=0p pd=0u as=0p ps=0u w=1.4e+06u l=600000u
X51 a_n5580_n13620# bias_a VSS VSS sky130_fd_pr__nfet_01v8 ad=0p pd=0u as=0p ps=0u w=1.4e+06u l=600000u
X52 VSS cmc a_n5580_n13620# VSS sky130_fd_pr__nfet_01v8 ad=0p pd=0u as=0p ps=0u w=1.4e+06u l=600000u
X53 VDD bias_b a_n6314_n3270# VDD sky130_fd_pr__pfet_01v8_lvt ad=0p pd=0u as=4.872e+12p ps=4.056e+07u w=1.4e+06u l=600000u
X54 on bias_d a_n1651_n13400# VSS sky130_fd_pr__nfet_01v8 ad=0p pd=0u as=0p ps=0u w=1.4e+06u l=600000u
X55 bias_c bias_c bias_c VSS sky130_fd_pr__nfet_01v8_lvt ad=0p pd=0u as=0p ps=0u w=1.4e+06u l=600000u
X56 bias_d a_n1110_n5852# a_n1110_n5852# VSS sky130_fd_pr__nfet_01v8 ad=0p pd=0u as=0p ps=0u w=1.4e+06u l=600000u
X57 a_n5580_n13620# bias_a VSS VSS sky130_fd_pr__nfet_01v8 ad=0p pd=0u as=0p ps=0u w=1.4e+06u l=600000u
X58 i_bias i_bias VSS VSS sky130_fd_pr__nfet_01v8 ad=0p pd=0u as=0p ps=0u w=1.4e+06u l=600000u
X59 op bias_c a_n5928_n13620# VDD sky130_fd_pr__pfet_01v8 ad=0p pd=0u as=0p ps=0u w=1.4e+06u l=600000u
X60 VSS cmc a_n5580_n13620# VSS sky130_fd_pr__nfet_01v8 ad=0p pd=0u as=0p ps=0u w=1.4e+06u l=600000u
X61 a_n5580_n13620# bias_a VSS VSS sky130_fd_pr__nfet_01v8 ad=0p pd=0u as=0p ps=0u w=1.4e+06u l=600000u
X62 a_n1651_n13400# bias_d on VSS sky130_fd_pr__nfet_01v8 ad=0p pd=0u as=0p ps=0u w=1.4e+06u l=600000u
X63 VDD VDD op VDD sky130_fd_pr__pfet_01v8 ad=0p pd=0u as=0p ps=0u w=1.4e+06u l=600000u
X64 VDD bias_b a_n5928_n12940# VDD sky130_fd_pr__pfet_01v8_lvt ad=0p pd=0u as=0p ps=0u w=1.4e+06u l=600000u
X65 VSS VSS a_n1651_n13400# VSS sky130_fd_pr__nfet_01v8 ad=0p pd=0u as=0p ps=0u w=1.4e+06u l=600000u
X66 a_n5580_n13620# cmc VSS VSS sky130_fd_pr__nfet_01v8 ad=0p pd=0u as=0p ps=0u w=1.4e+06u l=600000u
X67 a_n5928_n13620# bias_c op VDD sky130_fd_pr__pfet_01v8 ad=0p pd=0u as=0p ps=0u w=1.4e+06u l=600000u
X68 a_n1110_n5852# bias_c a_n6314_n5010# VDD sky130_fd_pr__pfet_01v8 ad=1.624e+12p pd=1.352e+07u as=0p ps=0u w=1.4e+06u l=600000u
X69 bias_b bias_b bias_b VSS sky130_fd_pr__nfet_01v8_lvt ad=0p pd=0u as=0p ps=0u w=1.4e+06u l=600000u
X70 a_n5580_n13620# bias_a VSS VSS sky130_fd_pr__nfet_01v8 ad=0p pd=0u as=0p ps=0u w=1.4e+06u l=600000u
X71 bias_a bias_d a_n2185_n13400# VSS sky130_fd_pr__nfet_01v8 ad=0p pd=0u as=0p ps=0u w=1.4e+06u l=600000u
X72 VSS i_bias bias_c VSS sky130_fd_pr__nfet_01v8 ad=0p pd=0u as=0p ps=0u w=1.4e+06u l=600000u
X73 VSS bias_a a_n5580_n13620# VSS sky130_fd_pr__nfet_01v8 ad=0p pd=0u as=0p ps=0u w=1.4e+06u l=600000u
X74 VDD bias_b a_n5928_n12940# VDD sky130_fd_pr__pfet_01v8_lvt ad=0p pd=0u as=0p ps=0u w=1.4e+06u l=600000u
X75 VSS bias_a a_n5580_n13620# VSS sky130_fd_pr__nfet_01v8 ad=0p pd=0u as=0p ps=0u w=1.4e+06u l=600000u
X76 op op op VSS sky130_fd_pr__nfet_01v8 ad=0p pd=0u as=0p ps=0u w=1.4e+06u l=600000u
X77 a_n6314_n4140# a_n6314_n4140# a_n6314_n4140# VDD sky130_fd_pr__pfet_01v8_lvt ad=0p pd=0u as=0p ps=0u w=1.4e+06u l=600000u
X78 VSS VSS a_n1651_n11400# VSS sky130_fd_pr__nfet_01v8 ad=0p pd=0u as=0p ps=0u w=1.4e+06u l=600000u
X79 a_n1651_n13400# bias_d on VSS sky130_fd_pr__nfet_01v8 ad=0p pd=0u as=0p ps=0u w=1.4e+06u l=600000u
X80 a_n5928_n13620# in a_n5580_n13620# VSS sky130_fd_pr__nfet_01v8_lvt ad=0p pd=0u as=0p ps=0u w=1.2e+06u l=200000u
X81 VDD bias_b a_n5928_n12940# VDD sky130_fd_pr__pfet_01v8_lvt ad=0p pd=0u as=0p ps=0u w=1.4e+06u l=600000u
X82 bias_e bias_e bias_e VSS sky130_fd_pr__nfet_01v8 ad=0p pd=0u as=0p ps=0u w=1.4e+06u l=600000u
X83 a_n5928_n12940# a_n5928_n12940# a_n5928_n12940# VSS sky130_fd_pr__nfet_01v8_lvt ad=0p pd=0u as=0p ps=0u w=1.2e+06u l=200000u
X84 a_n5580_n13620# cmc VSS VSS sky130_fd_pr__nfet_01v8 ad=0p pd=0u as=0p ps=0u w=1.4e+06u l=600000u
X85 bias_c bias_b bias_b VSS sky130_fd_pr__nfet_01v8_lvt ad=0p pd=0u as=0p ps=0u w=1.4e+06u l=600000u
X86 a_n5928_n12940# bias_c on VDD sky130_fd_pr__pfet_01v8 ad=0p pd=0u as=0p ps=0u w=1.4e+06u l=600000u
X87 VSS bias_a a_n5580_n13620# VSS sky130_fd_pr__nfet_01v8 ad=0p pd=0u as=0p ps=0u w=1.4e+06u l=600000u
X88 VSS i_bias i_bias VSS sky130_fd_pr__nfet_01v8 ad=0p pd=0u as=0p ps=0u w=1.4e+06u l=600000u
X89 VDD bias_b a_n5928_n13620# VDD sky130_fd_pr__pfet_01v8_lvt ad=0p pd=0u as=0p ps=0u w=1.4e+06u l=600000u
X90 VDD bias_b a_n6314_n5010# VDD sky130_fd_pr__pfet_01v8_lvt ad=0p pd=0u as=0p ps=0u w=1.4e+06u l=600000u
X91 on bias_d a_n1651_n13400# VSS sky130_fd_pr__nfet_01v8 ad=0p pd=0u as=0p ps=0u w=1.4e+06u l=600000u
X92 a_n1110_n5852# bias_c a_n6314_n5010# VDD sky130_fd_pr__pfet_01v8 ad=0p pd=0u as=0p ps=0u w=1.4e+06u l=600000u
X93 a_n5580_n13620# bias_a VSS VSS sky130_fd_pr__nfet_01v8 ad=0p pd=0u as=0p ps=0u w=1.4e+06u l=600000u
X94 bias_c bias_c bias_c VSS sky130_fd_pr__nfet_01v8 ad=0p pd=0u as=0p ps=0u w=1.4e+06u l=600000u
X95 VSS i_bias bias_c VSS sky130_fd_pr__nfet_01v8 ad=0p pd=0u as=0p ps=0u w=1.4e+06u l=600000u
X96 a_n5580_n13620# cmc VSS VSS sky130_fd_pr__nfet_01v8 ad=0p pd=0u as=0p ps=0u w=1.4e+06u l=600000u
X97 op bias_c a_n5928_n13620# VDD sky130_fd_pr__pfet_01v8 ad=0p pd=0u as=0p ps=0u w=1.4e+06u l=600000u
X98 VSS cmc a_n5580_n13620# VSS sky130_fd_pr__nfet_01v8 ad=0p pd=0u as=0p ps=0u w=1.4e+06u l=600000u
X99 op bias_c a_n5928_n13620# VDD sky130_fd_pr__pfet_01v8 ad=0p pd=0u as=0p ps=0u w=1.4e+06u l=600000u
X100 VDD bias_b a_n6314_n4140# VDD sky130_fd_pr__pfet_01v8_lvt ad=0p pd=0u as=0p ps=0u w=1.4e+06u l=600000u
X101 bias_d a_n1110_n5852# a_n1110_n5852# VSS sky130_fd_pr__nfet_01v8 ad=0p pd=0u as=0p ps=0u w=1.4e+06u l=600000u
X102 bias_a bias_a bias_a VSS sky130_fd_pr__nfet_01v8 ad=0p pd=0u as=0p ps=0u w=1.4e+06u l=600000u
X103 VSS cmc a_n5580_n13620# VSS sky130_fd_pr__nfet_01v8 ad=0p pd=0u as=0p ps=0u w=1.4e+06u l=600000u
X104 a_n1651_n11400# VSS VSS VSS sky130_fd_pr__nfet_01v8 ad=0p pd=0u as=0p ps=0u w=1.4e+06u l=600000u
X105 a_n5928_n12940# bias_b VDD VDD sky130_fd_pr__pfet_01v8_lvt ad=0p pd=0u as=0p ps=0u w=1.4e+06u l=600000u
X106 a_n5580_n13620# bias_a VSS VSS sky130_fd_pr__nfet_01v8 ad=0p pd=0u as=0p ps=0u w=1.4e+06u l=600000u
X107 a_n1651_n13400# bias_d on VSS sky130_fd_pr__nfet_01v8 ad=0p pd=0u as=0p ps=0u w=1.4e+06u l=600000u
X108 VDD bias_b a_n5928_n13620# VDD sky130_fd_pr__pfet_01v8_lvt ad=0p pd=0u as=0p ps=0u w=1.4e+06u l=600000u
X109 on VDD VDD VDD sky130_fd_pr__pfet_01v8 ad=0p pd=0u as=0p ps=0u w=1.4e+06u l=600000u
X110 VSS cmc a_n5580_n13620# VSS sky130_fd_pr__nfet_01v8 ad=0p pd=0u as=0p ps=0u w=1.4e+06u l=600000u
X111 VSS i_bias i_bias VSS sky130_fd_pr__nfet_01v8 ad=0p pd=0u as=0p ps=0u w=1.4e+06u l=600000u
X112 bias_c bias_c bias_c VSS sky130_fd_pr__nfet_01v8_lvt ad=0p pd=0u as=0p ps=0u w=1.4e+06u l=600000u
X113 a_n5580_n13620# bias_a VSS VSS sky130_fd_pr__nfet_01v8 ad=0p pd=0u as=0p ps=0u w=1.4e+06u l=600000u
X114 bias_b bias_b bias_c VSS sky130_fd_pr__nfet_01v8_lvt ad=0p pd=0u as=0p ps=0u w=1.4e+06u l=600000u
X115 VDD VDD VDD VDD sky130_fd_pr__pfet_01v8 ad=0p pd=0u as=0p ps=0u w=1.4e+06u l=600000u
X116 a_n1110_n5852# a_n1110_n5852# bias_d VSS sky130_fd_pr__nfet_01v8 ad=0p pd=0u as=0p ps=0u w=1.4e+06u l=600000u
X117 a_n5928_n12940# bias_b VDD VDD sky130_fd_pr__pfet_01v8_lvt ad=0p pd=0u as=0p ps=0u w=1.4e+06u l=600000u
X118 VSS cmc a_n5580_n13620# VSS sky130_fd_pr__nfet_01v8 ad=0p pd=0u as=0p ps=0u w=1.4e+06u l=600000u
X119 VSS cmc a_n5580_n13620# VSS sky130_fd_pr__nfet_01v8 ad=0p pd=0u as=0p ps=0u w=1.4e+06u l=600000u
X120 VSS cmc a_n5580_n13620# VSS sky130_fd_pr__nfet_01v8 ad=0p pd=0u as=0p ps=0u w=1.4e+06u l=600000u
X121 a_n5580_n13620# cmc VSS VSS sky130_fd_pr__nfet_01v8 ad=0p pd=0u as=0p ps=0u w=1.4e+06u l=600000u
X122 a_n1651_n11400# bias_d op VSS sky130_fd_pr__nfet_01v8 ad=0p pd=0u as=0p ps=0u w=1.4e+06u l=600000u
X123 VSS VSS a_n1651_n11400# VSS sky130_fd_pr__nfet_01v8 ad=0p pd=0u as=0p ps=0u w=1.4e+06u l=600000u
X124 VSS cmc a_n5580_n13620# VSS sky130_fd_pr__nfet_01v8 ad=0p pd=0u as=0p ps=0u w=1.4e+06u l=600000u
X125 a_n1110_n5852# a_n1110_n5852# bias_d VSS sky130_fd_pr__nfet_01v8 ad=0p pd=0u as=0p ps=0u w=1.4e+06u l=600000u
X126 a_n5580_n13620# cmc VSS VSS sky130_fd_pr__nfet_01v8 ad=0p pd=0u as=0p ps=0u w=1.4e+06u l=600000u
X127 a_n2185_n13400# bias_a VSS VSS sky130_fd_pr__nfet_01v8 ad=0p pd=0u as=0p ps=0u w=1.4e+06u l=600000u
X128 on on on VSS sky130_fd_pr__nfet_01v8 ad=0p pd=0u as=0p ps=0u w=1.4e+06u l=600000u
X129 bias_b bias_b bias_b VSS sky130_fd_pr__nfet_01v8_lvt ad=0p pd=0u as=0p ps=0u w=1.4e+06u l=600000u
X130 bias_c bias_b bias_b VSS sky130_fd_pr__nfet_01v8_lvt ad=0p pd=0u as=0p ps=0u w=1.4e+06u l=600000u
X131 a_n5580_n13620# cmc VSS VSS sky130_fd_pr__nfet_01v8 ad=0p pd=0u as=0p ps=0u w=1.4e+06u l=600000u
X132 VSS bias_a a_n5580_n13620# VSS sky130_fd_pr__nfet_01v8 ad=0p pd=0u as=0p ps=0u w=1.4e+06u l=600000u
X133 a_n1110_n5852# a_n1110_n5852# a_n1110_n5852# VSS sky130_fd_pr__nfet_01v8 ad=0p pd=0u as=0p ps=0u w=1.4e+06u l=600000u
X134 a_n1651_n13400# bias_d on VSS sky130_fd_pr__nfet_01v8 ad=0p pd=0u as=0p ps=0u w=1.4e+06u l=600000u
X135 a_n5580_n13620# cmc VSS VSS sky130_fd_pr__nfet_01v8 ad=0p pd=0u as=0p ps=0u w=1.4e+06u l=600000u
X136 bias_d a_n1110_n5852# a_n1110_n5852# VSS sky130_fd_pr__nfet_01v8 ad=0p pd=0u as=0p ps=0u w=1.4e+06u l=600000u
X137 a_n5580_n13620# a_n5580_n13620# a_n5580_n13620# VSS sky130_fd_pr__nfet_01v8 ad=0p pd=0u as=0p ps=0u w=1.4e+06u l=600000u
X138 a_n1651_n11400# bias_d op VSS sky130_fd_pr__nfet_01v8 ad=0p pd=0u as=0p ps=0u w=1.4e+06u l=600000u
X139 VSS bias_a a_n5580_n13620# VSS sky130_fd_pr__nfet_01v8 ad=0p pd=0u as=0p ps=0u w=1.4e+06u l=600000u
X140 a_12106_n9962# bias_e a_11928_n10732# VSS sky130_fd_pr__nfet_01v8 ad=8.12e+11p pd=6.76e+06u as=8.12e+11p ps=6.76e+06u w=1.4e+06u l=600000u
X141 VSS i_bias bias_c VSS sky130_fd_pr__nfet_01v8 ad=0p pd=0u as=0p ps=0u w=1.4e+06u l=600000u
X142 a_n1651_n11400# bias_a VSS VSS sky130_fd_pr__nfet_01v8 ad=0p pd=0u as=0p ps=0u w=1.4e+06u l=600000u
X143 bias_c i_bias VSS VSS sky130_fd_pr__nfet_01v8 ad=0p pd=0u as=0p ps=0u w=1.4e+06u l=600000u
X144 op bias_c a_n5928_n13620# VDD sky130_fd_pr__pfet_01v8 ad=0p pd=0u as=0p ps=0u w=1.4e+06u l=600000u
X145 a_n5928_n13620# a_n5928_n13620# a_n5928_n13620# VDD sky130_fd_pr__pfet_01v8 ad=0p pd=0u as=0p ps=0u w=1.4e+06u l=600000u
X146 VSS bias_a a_n5580_n13620# VSS sky130_fd_pr__nfet_01v8 ad=0p pd=0u as=0p ps=0u w=1.4e+06u l=600000u
X147 bias_c bias_b bias_b VSS sky130_fd_pr__nfet_01v8_lvt ad=0p pd=0u as=0p ps=0u w=1.4e+06u l=600000u
X148 VSS bias_a a_n5580_n13620# VSS sky130_fd_pr__nfet_01v8 ad=0p pd=0u as=0p ps=0u w=1.4e+06u l=600000u
X149 bias_c bias_b bias_b VSS sky130_fd_pr__nfet_01v8_lvt ad=0p pd=0u as=0p ps=0u w=1.4e+06u l=600000u
X150 op bias_c a_n5928_n13620# VDD sky130_fd_pr__pfet_01v8 ad=0p pd=0u as=0p ps=0u w=1.4e+06u l=600000u
X151 bias_c bias_b bias_b VSS sky130_fd_pr__nfet_01v8_lvt ad=0p pd=0u as=0p ps=0u w=1.4e+06u l=600000u
X152 VSS bias_a a_n5580_n13620# VSS sky130_fd_pr__nfet_01v8 ad=0p pd=0u as=0p ps=0u w=1.4e+06u l=600000u
X153 VDD VDD a_n1110_n5852# VDD sky130_fd_pr__pfet_01v8 ad=0p pd=0u as=0p ps=0u w=1.4e+06u l=600000u
X154 VSS bias_a a_n5580_n13620# VSS sky130_fd_pr__nfet_01v8 ad=0p pd=0u as=0p ps=0u w=1.4e+06u l=600000u
X155 a_n1110_n5852# a_n1110_n5852# bias_d VSS sky130_fd_pr__nfet_01v8 ad=0p pd=0u as=0p ps=0u w=1.4e+06u l=600000u
X156 a_n2185_n13400# VSS VSS VSS sky130_fd_pr__nfet_01v8 ad=0p pd=0u as=0p ps=0u w=1.4e+06u l=600000u
X157 a_n5580_n13620# bias_a VSS VSS sky130_fd_pr__nfet_01v8 ad=0p pd=0u as=0p ps=0u w=1.4e+06u l=600000u
X158 VSS bias_a a_n5580_n13620# VSS sky130_fd_pr__nfet_01v8 ad=0p pd=0u as=0p ps=0u w=1.4e+06u l=600000u
X159 a_n6314_n3270# bias_b VDD VDD sky130_fd_pr__pfet_01v8_lvt ad=0p pd=0u as=0p ps=0u w=1.4e+06u l=600000u
X160 a_n5928_n12940# a_n5928_n12940# a_n5928_n12940# VSS sky130_fd_pr__nfet_01v8_lvt ad=0p pd=0u as=0p ps=0u w=1.2e+06u l=200000u
X161 a_n1651_n13400# bias_d on VSS sky130_fd_pr__nfet_01v8 ad=0p pd=0u as=0p ps=0u w=1.4e+06u l=600000u
X162 a_n1651_n13400# bias_a VSS VSS sky130_fd_pr__nfet_01v8 ad=0p pd=0u as=0p ps=0u w=1.4e+06u l=600000u
X163 a_n5580_n13620# in a_n5928_n13620# VSS sky130_fd_pr__nfet_01v8_lvt ad=0p pd=0u as=0p ps=0u w=1.2e+06u l=200000u
X164 a_n2185_n13400# bias_a VSS VSS sky130_fd_pr__nfet_01v8 ad=0p pd=0u as=0p ps=0u w=1.4e+06u l=600000u
X165 a_n6314_n3270# bias_c bias_b VDD sky130_fd_pr__pfet_01v8 ad=0p pd=0u as=1.624e+12p ps=1.352e+07u w=1.4e+06u l=600000u
X166 a_n5928_n13620# bias_b VDD VDD sky130_fd_pr__pfet_01v8_lvt ad=0p pd=0u as=0p ps=0u w=1.4e+06u l=600000u
X167 bias_d a_n1110_n5852# a_n1110_n5852# VSS sky130_fd_pr__nfet_01v8 ad=0p pd=0u as=0p ps=0u w=1.4e+06u l=600000u
X168 VSS i_bias bias_c VSS sky130_fd_pr__nfet_01v8 ad=0p pd=0u as=0p ps=0u w=1.4e+06u l=600000u
X169 bias_c bias_c bias_c VSS sky130_fd_pr__nfet_01v8_lvt ad=0p pd=0u as=0p ps=0u w=1.4e+06u l=600000u
X170 a_n5580_n13620# bias_a VSS VSS sky130_fd_pr__nfet_01v8 ad=0p pd=0u as=0p ps=0u w=1.4e+06u l=600000u
X171 a_n2185_n13400# bias_a VSS VSS sky130_fd_pr__nfet_01v8 ad=0p pd=0u as=0p ps=0u w=1.4e+06u l=600000u
X172 a_n1651_n13400# VSS VSS VSS sky130_fd_pr__nfet_01v8 ad=0p pd=0u as=0p ps=0u w=1.4e+06u l=600000u
X173 a_n5580_n13620# a_n5580_n13620# a_n5580_n13620# VSS sky130_fd_pr__nfet_01v8 ad=0p pd=0u as=0p ps=0u w=1.4e+06u l=600000u
X174 a_n1110_n5852# a_n1110_n5852# bias_d VSS sky130_fd_pr__nfet_01v8 ad=0p pd=0u as=0p ps=0u w=1.4e+06u l=600000u
X175 on bias_c a_n5928_n12940# VDD sky130_fd_pr__pfet_01v8 ad=0p pd=0u as=0p ps=0u w=1.4e+06u l=600000u
X176 a_n1651_n13400# bias_a VSS VSS sky130_fd_pr__nfet_01v8 ad=0p pd=0u as=0p ps=0u w=1.4e+06u l=600000u
X177 a_n6314_n4140# bias_b VDD VDD sky130_fd_pr__pfet_01v8_lvt ad=0p pd=0u as=0p ps=0u w=1.4e+06u l=600000u
X178 bias_b bias_b bias_c VSS sky130_fd_pr__nfet_01v8_lvt ad=0p pd=0u as=0p ps=0u w=1.4e+06u l=600000u
X179 a_n1110_n5852# a_n1110_n5852# bias_d VSS sky130_fd_pr__nfet_01v8 ad=0p pd=0u as=0p ps=0u w=1.4e+06u l=600000u
X180 a_n5928_n13620# bias_b VDD VDD sky130_fd_pr__pfet_01v8_lvt ad=0p pd=0u as=0p ps=0u w=1.4e+06u l=600000u
X181 bias_d bias_d bias_d VSS sky130_fd_pr__nfet_01v8 ad=0p pd=0u as=0p ps=0u w=1.4e+06u l=600000u
X182 bias_b bias_b bias_c VSS sky130_fd_pr__nfet_01v8_lvt ad=0p pd=0u as=0p ps=0u w=1.4e+06u l=600000u
X183 VSS cmc a_n5580_n13620# VSS sky130_fd_pr__nfet_01v8 ad=0p pd=0u as=0p ps=0u w=1.4e+06u l=600000u
X184 VSS cmc a_n5580_n13620# VSS sky130_fd_pr__nfet_01v8 ad=0p pd=0u as=0p ps=0u w=1.4e+06u l=600000u
X185 VSS cmc a_n5580_n13620# VSS sky130_fd_pr__nfet_01v8 ad=0p pd=0u as=0p ps=0u w=1.4e+06u l=600000u
X186 VDD VDD a_n5928_n12940# VDD sky130_fd_pr__pfet_01v8 ad=0p pd=0u as=0p ps=0u w=1.4e+06u l=600000u
X187 a_n1651_n11400# bias_a VSS VSS sky130_fd_pr__nfet_01v8 ad=0p pd=0u as=0p ps=0u w=1.4e+06u l=600000u
X188 a_n5928_n13620# bias_c op VDD sky130_fd_pr__pfet_01v8 ad=0p pd=0u as=0p ps=0u w=1.4e+06u l=600000u
X189 a_n6314_n5010# a_n6314_n5010# a_n6314_n5010# VDD sky130_fd_pr__pfet_01v8_lvt ad=0p pd=0u as=0p ps=0u w=1.4e+06u l=600000u
X190 a_n1651_n13400# bias_d on VSS sky130_fd_pr__nfet_01v8 ad=0p pd=0u as=0p ps=0u w=1.4e+06u l=600000u
X191 VSS cmc a_n5580_n13620# VSS sky130_fd_pr__nfet_01v8 ad=0p pd=0u as=0p ps=0u w=1.4e+06u l=600000u
X192 a_n5580_n13620# bias_a VSS VSS sky130_fd_pr__nfet_01v8 ad=0p pd=0u as=0p ps=0u w=1.4e+06u l=600000u
X193 a_n5580_n13620# bias_a VSS VSS sky130_fd_pr__nfet_01v8 ad=0p pd=0u as=0p ps=0u w=1.4e+06u l=600000u
X194 VSS VSS op VSS sky130_fd_pr__nfet_01v8 ad=0p pd=0u as=0p ps=0u w=1.4e+06u l=600000u
X195 bias_a bias_d a_n2185_n13400# VSS sky130_fd_pr__nfet_01v8 ad=0p pd=0u as=0p ps=0u w=1.4e+06u l=600000u
X196 a_n1651_n11400# bias_a VSS VSS sky130_fd_pr__nfet_01v8 ad=0p pd=0u as=0p ps=0u w=1.4e+06u l=600000u
X197 a_n2185_n13400# bias_a VSS VSS sky130_fd_pr__nfet_01v8 ad=0p pd=0u as=0p ps=0u w=1.4e+06u l=600000u
X198 VSS i_bias bias_c VSS sky130_fd_pr__nfet_01v8 ad=0p pd=0u as=0p ps=0u w=1.4e+06u l=600000u
X199 i_bias i_bias i_bias VSS sky130_fd_pr__nfet_01v8 ad=0p pd=0u as=0p ps=0u w=1.4e+06u l=600000u
X200 a_n5928_n12940# bias_b VDD VDD sky130_fd_pr__pfet_01v8_lvt ad=0p pd=0u as=0p ps=0u w=1.4e+06u l=600000u
X201 a_n5580_n13620# bias_a VSS VSS sky130_fd_pr__nfet_01v8 ad=0p pd=0u as=0p ps=0u w=1.4e+06u l=600000u
X202 a_n1651_n11400# bias_a VSS VSS sky130_fd_pr__nfet_01v8 ad=0p pd=0u as=0p ps=0u w=1.4e+06u l=600000u
X203 a_n1110_n5852# a_n1110_n5852# bias_d VSS sky130_fd_pr__nfet_01v8 ad=0p pd=0u as=0p ps=0u w=1.4e+06u l=600000u
X204 bias_c bias_b bias_b VSS sky130_fd_pr__nfet_01v8_lvt ad=0p pd=0u as=0p ps=0u w=1.4e+06u l=600000u
X205 a_n1651_n13400# bias_a VSS VSS sky130_fd_pr__nfet_01v8 ad=0p pd=0u as=0p ps=0u w=1.4e+06u l=600000u
X206 i_bias i_bias VSS VSS sky130_fd_pr__nfet_01v8 ad=0p pd=0u as=0p ps=0u w=1.4e+06u l=600000u
X207 a_n1110_n5852# a_n1110_n5852# bias_d VSS sky130_fd_pr__nfet_01v8 ad=0p pd=0u as=0p ps=0u w=1.4e+06u l=600000u
X208 VSS i_bias bias_c VSS sky130_fd_pr__nfet_01v8 ad=0p pd=0u as=0p ps=0u w=1.4e+06u l=600000u
X209 VDD bias_b a_n6314_n4140# VDD sky130_fd_pr__pfet_01v8_lvt ad=0p pd=0u as=0p ps=0u w=1.4e+06u l=600000u
X210 a_11230_n11502# bias_e VSS VSS sky130_fd_pr__nfet_01v8 ad=8.12e+11p pd=6.76e+06u as=0p ps=0u w=1.4e+06u l=600000u
X211 a_n1651_n11400# bias_a VSS VSS sky130_fd_pr__nfet_01v8 ad=0p pd=0u as=0p ps=0u w=1.4e+06u l=600000u
X212 VSS bias_a a_n1651_n13400# VSS sky130_fd_pr__nfet_01v8 ad=0p pd=0u as=0p ps=0u w=1.4e+06u l=600000u
X213 a_n6314_n3270# a_n6314_n3270# a_n6314_n3270# VDD sky130_fd_pr__pfet_01v8 ad=0p pd=0u as=0p ps=0u w=1.4e+06u l=600000u
X214 VDD VDD op VDD sky130_fd_pr__pfet_01v8 ad=0p pd=0u as=0p ps=0u w=1.4e+06u l=600000u
X215 a_n1651_n13400# bias_a VSS VSS sky130_fd_pr__nfet_01v8 ad=0p pd=0u as=0p ps=0u w=1.4e+06u l=600000u
X216 a_n6314_n4140# bias_c bias_e VDD sky130_fd_pr__pfet_01v8 ad=0p pd=0u as=1.624e+12p ps=1.352e+07u w=1.4e+06u l=600000u
X217 bias_c bias_b bias_b VSS sky130_fd_pr__nfet_01v8_lvt ad=0p pd=0u as=0p ps=0u w=1.4e+06u l=600000u
X218 bias_d a_n1110_n5852# a_n1110_n5852# VSS sky130_fd_pr__nfet_01v8 ad=0p pd=0u as=0p ps=0u w=1.4e+06u l=600000u
X219 bias_c bias_b bias_b VSS sky130_fd_pr__nfet_01v8_lvt ad=0p pd=0u as=0p ps=0u w=1.4e+06u l=600000u
X220 a_n1651_n13400# bias_d on VSS sky130_fd_pr__nfet_01v8 ad=0p pd=0u as=0p ps=0u w=1.4e+06u l=600000u
X221 a_n1651_n11400# bias_a VSS VSS sky130_fd_pr__nfet_01v8 ad=0p pd=0u as=0p ps=0u w=1.4e+06u l=600000u
X222 a_n1651_n13400# bias_a VSS VSS sky130_fd_pr__nfet_01v8 ad=0p pd=0u as=0p ps=0u w=1.4e+06u l=600000u
X223 a_n5580_n13620# cmc VSS VSS sky130_fd_pr__nfet_01v8 ad=0p pd=0u as=0p ps=0u w=1.4e+06u l=600000u
X224 a_n5580_n13620# cmc VSS VSS sky130_fd_pr__nfet_01v8 ad=0p pd=0u as=0p ps=0u w=1.4e+06u l=600000u
X225 a_n1651_n11400# bias_d op VSS sky130_fd_pr__nfet_01v8 ad=0p pd=0u as=0p ps=0u w=1.4e+06u l=600000u
X226 a_n1651_n11400# bias_a VSS VSS sky130_fd_pr__nfet_01v8 ad=0p pd=0u as=0p ps=0u w=1.4e+06u l=600000u
X227 op bias_d a_n1651_n11400# VSS sky130_fd_pr__nfet_01v8 ad=0p pd=0u as=0p ps=0u w=1.4e+06u l=600000u
X228 a_n1110_n5852# a_n1110_n5852# bias_d VSS sky130_fd_pr__nfet_01v8 ad=0p pd=0u as=0p ps=0u w=1.4e+06u l=600000u
X229 VSS bias_a a_n5580_n13620# VSS sky130_fd_pr__nfet_01v8 ad=0p pd=0u as=0p ps=0u w=1.4e+06u l=600000u
X230 a_n2185_n13400# bias_a VSS VSS sky130_fd_pr__nfet_01v8 ad=0p pd=0u as=0p ps=0u w=1.4e+06u l=600000u
X231 op bias_d a_n1651_n11400# VSS sky130_fd_pr__nfet_01v8 ad=0p pd=0u as=0p ps=0u w=1.4e+06u l=600000u
X232 a_n1651_n11400# bias_a VSS VSS sky130_fd_pr__nfet_01v8 ad=0p pd=0u as=0p ps=0u w=1.4e+06u l=600000u
X233 VSS i_bias bias_c VSS sky130_fd_pr__nfet_01v8 ad=0p pd=0u as=0p ps=0u w=1.4e+06u l=600000u
X234 bias_c bias_c bias_c VSS sky130_fd_pr__nfet_01v8_lvt ad=0p pd=0u as=0p ps=0u w=1.4e+06u l=600000u
X235 a_n5580_n13620# bias_a VSS VSS sky130_fd_pr__nfet_01v8 ad=0p pd=0u as=0p ps=0u w=1.4e+06u l=600000u
X236 bias_b bias_b bias_c VSS sky130_fd_pr__nfet_01v8_lvt ad=0p pd=0u as=0p ps=0u w=1.4e+06u l=600000u
X237 bias_d a_n1110_n5852# a_n1110_n5852# VSS sky130_fd_pr__nfet_01v8 ad=0p pd=0u as=0p ps=0u w=1.4e+06u l=600000u
X238 a_n2185_n13400# bias_d bias_a VSS sky130_fd_pr__nfet_01v8 ad=0p pd=0u as=0p ps=0u w=1.4e+06u l=600000u
X239 a_n5580_n13620# cmc VSS VSS sky130_fd_pr__nfet_01v8 ad=0p pd=0u as=0p ps=0u w=1.4e+06u l=600000u
X240 on bias_d a_n1651_n13400# VSS sky130_fd_pr__nfet_01v8 ad=0p pd=0u as=0p ps=0u w=1.4e+06u l=600000u
X241 a_n6314_n3270# a_n6314_n3270# a_n6314_n3270# VDD sky130_fd_pr__pfet_01v8_lvt ad=0p pd=0u as=0p ps=0u w=1.4e+06u l=600000u
X242 a_n2185_n13400# bias_a VSS VSS sky130_fd_pr__nfet_01v8 ad=0p pd=0u as=0p ps=0u w=1.4e+06u l=600000u
X243 VSS bias_a a_n1651_n13400# VSS sky130_fd_pr__nfet_01v8 ad=0p pd=0u as=0p ps=0u w=1.4e+06u l=600000u
X244 bias_b bias_b bias_c VSS sky130_fd_pr__nfet_01v8_lvt ad=0p pd=0u as=0p ps=0u w=1.4e+06u l=600000u
X245 bias_d a_n1110_n5852# a_n1110_n5852# VSS sky130_fd_pr__nfet_01v8 ad=0p pd=0u as=0p ps=0u w=1.4e+06u l=600000u
X246 a_11522_n11502# bias_e a_11344_n10732# VSS sky130_fd_pr__nfet_01v8 ad=8.12e+11p pd=6.76e+06u as=8.12e+11p ps=6.76e+06u w=1.4e+06u l=600000u
X247 a_n1651_n13400# bias_a VSS VSS sky130_fd_pr__nfet_01v8 ad=0p pd=0u as=0p ps=0u w=1.4e+06u l=600000u
X248 op bias_d a_n1651_n11400# VSS sky130_fd_pr__nfet_01v8 ad=0p pd=0u as=0p ps=0u w=1.4e+06u l=600000u
X249 on bias_c a_n5928_n12940# VDD sky130_fd_pr__pfet_01v8 ad=0p pd=0u as=0p ps=0u w=1.4e+06u l=600000u
X250 a_n1651_n11400# bias_a VSS VSS sky130_fd_pr__nfet_01v8 ad=0p pd=0u as=0p ps=0u w=1.4e+06u l=600000u
X251 VDD bias_b a_n5928_n13620# VDD sky130_fd_pr__pfet_01v8_lvt ad=0p pd=0u as=0p ps=0u w=1.4e+06u l=600000u
X252 a_n2185_n13400# bias_d bias_a VSS sky130_fd_pr__nfet_01v8 ad=0p pd=0u as=0p ps=0u w=1.4e+06u l=600000u
X253 a_n1651_n13400# bias_a VSS VSS sky130_fd_pr__nfet_01v8 ad=0p pd=0u as=0p ps=0u w=1.4e+06u l=600000u
X254 a_n5580_n13620# bias_a VSS VSS sky130_fd_pr__nfet_01v8 ad=0p pd=0u as=0p ps=0u w=1.4e+06u l=600000u
X255 a_n6314_n3270# bias_c bias_b VDD sky130_fd_pr__pfet_01v8 ad=0p pd=0u as=0p ps=0u w=1.4e+06u l=600000u
X256 a_n5580_n13620# bias_a VSS VSS sky130_fd_pr__nfet_01v8 ad=0p pd=0u as=0p ps=0u w=1.4e+06u l=600000u
X257 bias_a bias_d a_n2185_n13400# VSS sky130_fd_pr__nfet_01v8 ad=0p pd=0u as=0p ps=0u w=1.4e+06u l=600000u
X258 a_n5928_n13620# in a_n5580_n13620# VSS sky130_fd_pr__nfet_01v8_lvt ad=0p pd=0u as=0p ps=0u w=1.2e+06u l=200000u
X259 VSS cmc a_n5580_n13620# VSS sky130_fd_pr__nfet_01v8 ad=0p pd=0u as=0p ps=0u w=1.4e+06u l=600000u
X260 on bias_d a_n1651_n13400# VSS sky130_fd_pr__nfet_01v8 ad=0p pd=0u as=0p ps=0u w=1.4e+06u l=600000u
X261 a_n5580_n13620# ip a_n5928_n12940# VSS sky130_fd_pr__nfet_01v8_lvt ad=0p pd=0u as=0p ps=0u w=1.2e+06u l=200000u
X262 VSS i_bias i_bias VSS sky130_fd_pr__nfet_01v8 ad=0p pd=0u as=0p ps=0u w=1.4e+06u l=600000u
X263 a_n1651_n13400# bias_a VSS VSS sky130_fd_pr__nfet_01v8 ad=0p pd=0u as=0p ps=0u w=1.4e+06u l=600000u
X264 VDD bias_b a_n6314_n4140# VDD sky130_fd_pr__pfet_01v8_lvt ad=0p pd=0u as=0p ps=0u w=1.4e+06u l=600000u
X265 bias_c bias_b bias_b VSS sky130_fd_pr__nfet_01v8_lvt ad=0p pd=0u as=0p ps=0u w=1.4e+06u l=600000u
X266 bias_d a_n1110_n5852# a_n1110_n5852# VSS sky130_fd_pr__nfet_01v8 ad=0p pd=0u as=0p ps=0u w=1.4e+06u l=600000u
X267 VDD bias_b a_n5928_n13620# VDD sky130_fd_pr__pfet_01v8_lvt ad=0p pd=0u as=0p ps=0u w=1.4e+06u l=600000u
X268 VDD VDD bias_e VDD sky130_fd_pr__pfet_01v8 ad=0p pd=0u as=0p ps=0u w=1.4e+06u l=600000u
X269 a_n5580_n13620# bias_a VSS VSS sky130_fd_pr__nfet_01v8 ad=0p pd=0u as=0p ps=0u w=1.4e+06u l=600000u
X270 a_n5580_n13620# cmc VSS VSS sky130_fd_pr__nfet_01v8 ad=0p pd=0u as=0p ps=0u w=1.4e+06u l=600000u
X271 a_n1651_n11400# bias_d op VSS sky130_fd_pr__nfet_01v8 ad=0p pd=0u as=0p ps=0u w=1.4e+06u l=600000u
X272 bias_b bias_c a_n6314_n3270# VDD sky130_fd_pr__pfet_01v8 ad=0p pd=0u as=0p ps=0u w=1.4e+06u l=600000u
X273 a_n5928_n12940# bias_c on VDD sky130_fd_pr__pfet_01v8 ad=0p pd=0u as=0p ps=0u w=1.4e+06u l=600000u
X274 a_11522_n9962# bias_e bias_e VSS sky130_fd_pr__nfet_01v8 ad=8.12e+11p pd=6.76e+06u as=0p ps=0u w=1.4e+06u l=600000u
X275 VSS cmc a_n5580_n13620# VSS sky130_fd_pr__nfet_01v8 ad=0p pd=0u as=0p ps=0u w=1.4e+06u l=600000u
X276 bias_e bias_e bias_e VSS sky130_fd_pr__nfet_01v8 ad=0p pd=0u as=0p ps=0u w=1.4e+06u l=600000u
X277 op bias_d a_n1651_n11400# VSS sky130_fd_pr__nfet_01v8 ad=0p pd=0u as=0p ps=0u w=1.4e+06u l=600000u