* NGSPICE file created from ota.ext - technology: sky130A

.subckt sky130_fd_pr__nfet_01v8_lvt_VU7MNH a_n652_n140# a_652_n194# a_772_n140# a_n60_n194#
+ a_n474_n140# a_n416_n194# a_474_n194# a_594_n140# a_n238_n194# a_n296_n140# a_296_n194#
+ a_60_n140# a_416_n140# a_n118_n140# a_118_n194# a_238_n140# a_n772_n194# a_n830_n140#
+ a_n594_n194# VSUBS
X0 a_772_n140# a_652_n194# a_594_n140# VSUBS sky130_fd_pr__nfet_01v8_lvt ad=4.06e+11p pd=3.38e+06u as=4.06e+11p ps=3.38e+06u w=1.4e+06u l=600000u
X1 a_n118_n140# a_n238_n194# a_n296_n140# VSUBS sky130_fd_pr__nfet_01v8_lvt ad=4.06e+11p pd=3.38e+06u as=4.06e+11p ps=3.38e+06u w=1.4e+06u l=600000u
X2 a_n652_n140# a_n772_n194# a_n830_n140# VSUBS sky130_fd_pr__nfet_01v8_lvt ad=4.06e+11p pd=3.38e+06u as=4.06e+11p ps=3.38e+06u w=1.4e+06u l=600000u
X3 a_60_n140# a_n60_n194# a_n118_n140# VSUBS sky130_fd_pr__nfet_01v8_lvt ad=4.06e+11p pd=3.38e+06u as=0p ps=0u w=1.4e+06u l=600000u
X4 a_594_n140# a_474_n194# a_416_n140# VSUBS sky130_fd_pr__nfet_01v8_lvt ad=0p pd=0u as=4.06e+11p ps=3.38e+06u w=1.4e+06u l=600000u
X5 a_n474_n140# a_n594_n194# a_n652_n140# VSUBS sky130_fd_pr__nfet_01v8_lvt ad=4.06e+11p pd=3.38e+06u as=0p ps=0u w=1.4e+06u l=600000u
X6 a_416_n140# a_296_n194# a_238_n140# VSUBS sky130_fd_pr__nfet_01v8_lvt ad=0p pd=0u as=4.06e+11p ps=3.38e+06u w=1.4e+06u l=600000u
X7 a_n296_n140# a_n416_n194# a_n474_n140# VSUBS sky130_fd_pr__nfet_01v8_lvt ad=0p pd=0u as=0p ps=0u w=1.4e+06u l=600000u
X8 a_238_n140# a_118_n194# a_60_n140# VSUBS sky130_fd_pr__nfet_01v8_lvt ad=0p pd=0u as=0p ps=0u w=1.4e+06u l=600000u
.ends

.subckt sky130_fd_pr__nfet_01v8_lvt_TRAZV8 a_21_n120# a_n79_n120# a_n33_n208# VSUBS
X0 a_21_n120# a_n33_n208# a_n79_n120# VSUBS sky130_fd_pr__nfet_01v8_lvt ad=3.48e+11p pd=2.98e+06u as=3.48e+11p ps=2.98e+06u w=1.2e+06u l=210000u
.ends

.subckt sky130_fd_pr__nfet_01v8_BASQVB a_n1008_n140# a_n652_n140# a_652_n194# a_772_n140#
+ a_n60_n194# a_n474_n140# a_n416_n194# a_474_n194# a_594_n140# a_n238_n194# a_n296_n140#
+ a_296_n194# a_60_n140# a_416_n140# a_n950_n194# a_n118_n140# a_118_n194# a_238_n140#
+ a_n772_n194# a_n830_n140# a_830_n194# a_950_n140# a_n594_n194# VSUBS
X0 a_772_n140# a_652_n194# a_594_n140# VSUBS sky130_fd_pr__nfet_01v8 ad=4.06e+11p pd=3.38e+06u as=4.06e+11p ps=3.38e+06u w=1.4e+06u l=600000u
X1 a_n118_n140# a_n238_n194# a_n296_n140# VSUBS sky130_fd_pr__nfet_01v8 ad=4.06e+11p pd=3.38e+06u as=4.06e+11p ps=3.38e+06u w=1.4e+06u l=600000u
X2 a_n652_n140# a_n772_n194# a_n830_n140# VSUBS sky130_fd_pr__nfet_01v8 ad=4.06e+11p pd=3.38e+06u as=4.06e+11p ps=3.38e+06u w=1.4e+06u l=600000u
X3 a_594_n140# a_474_n194# a_416_n140# VSUBS sky130_fd_pr__nfet_01v8 ad=0p pd=0u as=4.06e+11p ps=3.38e+06u w=1.4e+06u l=600000u
X4 a_60_n140# a_n60_n194# a_n118_n140# VSUBS sky130_fd_pr__nfet_01v8 ad=4.06e+11p pd=3.38e+06u as=0p ps=0u w=1.4e+06u l=600000u
X5 a_950_n140# a_830_n194# a_772_n140# VSUBS sky130_fd_pr__nfet_01v8 ad=4.06e+11p pd=3.38e+06u as=0p ps=0u w=1.4e+06u l=600000u
X6 a_n830_n140# a_n950_n194# a_n1008_n140# VSUBS sky130_fd_pr__nfet_01v8 ad=0p pd=0u as=4.06e+11p ps=3.38e+06u w=1.4e+06u l=600000u
X7 a_n474_n140# a_n594_n194# a_n652_n140# VSUBS sky130_fd_pr__nfet_01v8 ad=4.06e+11p pd=3.38e+06u as=0p ps=0u w=1.4e+06u l=600000u
X8 a_416_n140# a_296_n194# a_238_n140# VSUBS sky130_fd_pr__nfet_01v8 ad=0p pd=0u as=4.06e+11p ps=3.38e+06u w=1.4e+06u l=600000u
X9 a_n296_n140# a_n416_n194# a_n474_n140# VSUBS sky130_fd_pr__nfet_01v8 ad=0p pd=0u as=0p ps=0u w=1.4e+06u l=600000u
X10 a_238_n140# a_118_n194# a_60_n140# VSUBS sky130_fd_pr__nfet_01v8 ad=0p pd=0u as=0p ps=0u w=1.4e+06u l=600000u
.ends

.subckt sky130_fd_pr__nfet_01v8_UFQYRB a_1751_n140# a_n149_n194# a_1987_n194# a_n2819_n194#
+ a_n207_n140# a_n1809_n140# a_n2877_n140# a_207_n194# a_n2285_n194# a_1453_n194#
+ a_n1217_n194# a_n3353_n194# a_327_n140# a_n1275_n140# a_n2343_n140# a_2521_n194#
+ a_n861_n194# a_1573_n140# a_n3411_n140# a_2641_n140# a_n2699_n140# a_2877_n194#
+ a_1809_n194# a_2997_n140# a_n29_n140# a_n1039_n194# a_n3175_n194# a_1929_n140# a_149_n140#
+ a_n1097_n140# a_2343_n194# a_1275_n194# a_29_n194# a_n2107_n194# a_n2165_n140# a_n3233_n140#
+ a_3411_n194# a_n683_n194# a_1395_n140# a_3531_n140# a_2463_n140# a_n741_n140# a_2699_n194#
+ a_741_n194# a_n3589_n140# a_n1751_n194# a_861_n140# a_1097_n194# a_2819_n140# a_3233_n194#
+ a_2165_n194# a_n3055_n140# a_n505_n194# a_2285_n140# a_n563_n140# a_563_n194# a_3353_n140#
+ a_1217_n140# a_n1573_n194# a_n2641_n194# a_683_n140# a_n919_n140# a_n1631_n140#
+ a_919_n194# a_3055_n194# a_n2997_n194# a_n1987_n140# a_n327_n194# a_n1929_n194#
+ a_3175_n140# a_1039_n140# a_n385_n140# a_385_n194# a_2107_n140# a_n1395_n194# a_n2463_n194#
+ a_n3531_n194# a_505_n140# a_n1453_n140# a_1631_n194# a_n2521_n140# VSUBS
X0 a_n29_n140# a_n149_n194# a_n207_n140# VSUBS sky130_fd_pr__nfet_01v8 ad=4.06e+11p pd=3.38e+06u as=4.06e+11p ps=3.38e+06u w=1.4e+06u l=600000u
X1 a_n2165_n140# a_n2285_n194# a_n2343_n140# VSUBS sky130_fd_pr__nfet_01v8 ad=4.06e+11p pd=3.38e+06u as=4.06e+11p ps=3.38e+06u w=1.4e+06u l=600000u
X2 a_n563_n140# a_n683_n194# a_n741_n140# VSUBS sky130_fd_pr__nfet_01v8 ad=4.06e+11p pd=3.38e+06u as=4.06e+11p ps=3.38e+06u w=1.4e+06u l=600000u
X3 a_n919_n140# a_n1039_n194# a_n1097_n140# VSUBS sky130_fd_pr__nfet_01v8 ad=4.06e+11p pd=3.38e+06u as=4.06e+11p ps=3.38e+06u w=1.4e+06u l=600000u
X4 a_505_n140# a_385_n194# a_327_n140# VSUBS sky130_fd_pr__nfet_01v8 ad=4.06e+11p pd=3.38e+06u as=4.06e+11p ps=3.38e+06u w=1.4e+06u l=600000u
X5 a_3175_n140# a_3055_n194# a_2997_n140# VSUBS sky130_fd_pr__nfet_01v8 ad=4.06e+11p pd=3.38e+06u as=4.06e+11p ps=3.38e+06u w=1.4e+06u l=600000u
X6 a_n3233_n140# a_n3353_n194# a_n3411_n140# VSUBS sky130_fd_pr__nfet_01v8 ad=4.06e+11p pd=3.38e+06u as=4.06e+11p ps=3.38e+06u w=1.4e+06u l=600000u
X7 a_2997_n140# a_2877_n194# a_2819_n140# VSUBS sky130_fd_pr__nfet_01v8 ad=0p pd=0u as=4.06e+11p ps=3.38e+06u w=1.4e+06u l=600000u
X8 a_n1987_n140# a_n2107_n194# a_n2165_n140# VSUBS sky130_fd_pr__nfet_01v8 ad=4.06e+11p pd=3.38e+06u as=0p ps=0u w=1.4e+06u l=600000u
X9 a_n385_n140# a_n505_n194# a_n563_n140# VSUBS sky130_fd_pr__nfet_01v8 ad=4.06e+11p pd=3.38e+06u as=0p ps=0u w=1.4e+06u l=600000u
X10 a_1395_n140# a_1275_n194# a_1217_n140# VSUBS sky130_fd_pr__nfet_01v8 ad=4.06e+11p pd=3.38e+06u as=4.06e+11p ps=3.38e+06u w=1.4e+06u l=600000u
X11 a_n1809_n140# a_n1929_n194# a_n1987_n140# VSUBS sky130_fd_pr__nfet_01v8 ad=4.06e+11p pd=3.38e+06u as=0p ps=0u w=1.4e+06u l=600000u
X12 a_n1453_n140# a_n1573_n194# a_n1631_n140# VSUBS sky130_fd_pr__nfet_01v8 ad=4.06e+11p pd=3.38e+06u as=4.06e+11p ps=3.38e+06u w=1.4e+06u l=600000u
X13 a_327_n140# a_207_n194# a_149_n140# VSUBS sky130_fd_pr__nfet_01v8 ad=0p pd=0u as=4.06e+11p ps=3.38e+06u w=1.4e+06u l=600000u
X14 a_2463_n140# a_2343_n194# a_2285_n140# VSUBS sky130_fd_pr__nfet_01v8 ad=4.06e+11p pd=3.38e+06u as=4.06e+11p ps=3.38e+06u w=1.4e+06u l=600000u
X15 a_n2521_n140# a_n2641_n194# a_n2699_n140# VSUBS sky130_fd_pr__nfet_01v8 ad=4.06e+11p pd=3.38e+06u as=4.06e+11p ps=3.38e+06u w=1.4e+06u l=600000u
X16 a_149_n140# a_29_n194# a_n29_n140# VSUBS sky130_fd_pr__nfet_01v8 ad=0p pd=0u as=0p ps=0u w=1.4e+06u l=600000u
X17 a_861_n140# a_741_n194# a_683_n140# VSUBS sky130_fd_pr__nfet_01v8 ad=4.06e+11p pd=3.38e+06u as=4.06e+11p ps=3.38e+06u w=1.4e+06u l=600000u
X18 a_3531_n140# a_3411_n194# a_3353_n140# VSUBS sky130_fd_pr__nfet_01v8 ad=4.06e+11p pd=3.38e+06u as=4.06e+11p ps=3.38e+06u w=1.4e+06u l=600000u
X19 a_1751_n140# a_1631_n194# a_1573_n140# VSUBS sky130_fd_pr__nfet_01v8 ad=4.06e+11p pd=3.38e+06u as=4.06e+11p ps=3.38e+06u w=1.4e+06u l=600000u
X20 a_n3055_n140# a_n3175_n194# a_n3233_n140# VSUBS sky130_fd_pr__nfet_01v8 ad=4.06e+11p pd=3.38e+06u as=0p ps=0u w=1.4e+06u l=600000u
X21 a_2819_n140# a_2699_n194# a_2641_n140# VSUBS sky130_fd_pr__nfet_01v8 ad=0p pd=0u as=4.06e+11p ps=3.38e+06u w=1.4e+06u l=600000u
X22 a_n2877_n140# a_n2997_n194# a_n3055_n140# VSUBS sky130_fd_pr__nfet_01v8 ad=4.06e+11p pd=3.38e+06u as=0p ps=0u w=1.4e+06u l=600000u
X23 a_n207_n140# a_n327_n194# a_n385_n140# VSUBS sky130_fd_pr__nfet_01v8 ad=0p pd=0u as=0p ps=0u w=1.4e+06u l=600000u
X24 a_1217_n140# a_1097_n194# a_1039_n140# VSUBS sky130_fd_pr__nfet_01v8 ad=0p pd=0u as=4.06e+11p ps=3.38e+06u w=1.4e+06u l=600000u
X25 a_n1275_n140# a_n1395_n194# a_n1453_n140# VSUBS sky130_fd_pr__nfet_01v8 ad=4.06e+11p pd=3.38e+06u as=0p ps=0u w=1.4e+06u l=600000u
X26 a_2285_n140# a_2165_n194# a_2107_n140# VSUBS sky130_fd_pr__nfet_01v8 ad=0p pd=0u as=4.06e+11p ps=3.38e+06u w=1.4e+06u l=600000u
X27 a_n2699_n140# a_n2819_n194# a_n2877_n140# VSUBS sky130_fd_pr__nfet_01v8 ad=0p pd=0u as=0p ps=0u w=1.4e+06u l=600000u
X28 a_n2343_n140# a_n2463_n194# a_n2521_n140# VSUBS sky130_fd_pr__nfet_01v8 ad=0p pd=0u as=0p ps=0u w=1.4e+06u l=600000u
X29 a_n741_n140# a_n861_n194# a_n919_n140# VSUBS sky130_fd_pr__nfet_01v8 ad=0p pd=0u as=0p ps=0u w=1.4e+06u l=600000u
X30 a_2107_n140# a_1987_n194# a_1929_n140# VSUBS sky130_fd_pr__nfet_01v8 ad=0p pd=0u as=4.06e+11p ps=3.38e+06u w=1.4e+06u l=600000u
X31 a_n1097_n140# a_n1217_n194# a_n1275_n140# VSUBS sky130_fd_pr__nfet_01v8 ad=0p pd=0u as=0p ps=0u w=1.4e+06u l=600000u
X32 a_683_n140# a_563_n194# a_505_n140# VSUBS sky130_fd_pr__nfet_01v8 ad=0p pd=0u as=0p ps=0u w=1.4e+06u l=600000u
X33 a_1039_n140# a_919_n194# a_861_n140# VSUBS sky130_fd_pr__nfet_01v8 ad=0p pd=0u as=0p ps=0u w=1.4e+06u l=600000u
X34 a_3353_n140# a_3233_n194# a_3175_n140# VSUBS sky130_fd_pr__nfet_01v8 ad=0p pd=0u as=0p ps=0u w=1.4e+06u l=600000u
X35 a_n3411_n140# a_n3531_n194# a_n3589_n140# VSUBS sky130_fd_pr__nfet_01v8 ad=0p pd=0u as=4.06e+11p ps=3.38e+06u w=1.4e+06u l=600000u
X36 a_1573_n140# a_1453_n194# a_1395_n140# VSUBS sky130_fd_pr__nfet_01v8 ad=0p pd=0u as=0p ps=0u w=1.4e+06u l=600000u
X37 a_1929_n140# a_1809_n194# a_1751_n140# VSUBS sky130_fd_pr__nfet_01v8 ad=0p pd=0u as=0p ps=0u w=1.4e+06u l=600000u
X38 a_n1631_n140# a_n1751_n194# a_n1809_n140# VSUBS sky130_fd_pr__nfet_01v8 ad=0p pd=0u as=0p ps=0u w=1.4e+06u l=600000u
X39 a_2641_n140# a_2521_n194# a_2463_n140# VSUBS sky130_fd_pr__nfet_01v8 ad=0p pd=0u as=0p ps=0u w=1.4e+06u l=600000u
.ends

.subckt sky130_fd_pr__nfet_01v8_7P4E2J a_n149_n194# a_n207_n140# a_207_n194# a_n1217_n194#
+ a_327_n140# a_n1275_n140# a_n861_n194# a_n29_n140# a_n1039_n194# a_149_n140# a_n1097_n140#
+ a_1275_n194# a_29_n194# a_n683_n194# a_1395_n140# a_n741_n140# a_741_n194# a_861_n140#
+ a_1097_n194# a_n505_n194# a_n563_n140# a_563_n194# a_1217_n140# a_683_n140# a_n919_n140#
+ a_919_n194# a_n327_n194# a_1039_n140# a_n385_n140# a_385_n194# a_n1395_n194# a_505_n140#
+ a_n1453_n140# VSUBS
X0 a_n29_n140# a_n149_n194# a_n207_n140# VSUBS sky130_fd_pr__nfet_01v8 ad=4.06e+11p pd=3.38e+06u as=4.06e+11p ps=3.38e+06u w=1.4e+06u l=600000u
X1 a_n563_n140# a_n683_n194# a_n741_n140# VSUBS sky130_fd_pr__nfet_01v8 ad=4.06e+11p pd=3.38e+06u as=4.06e+11p ps=3.38e+06u w=1.4e+06u l=600000u
X2 a_n919_n140# a_n1039_n194# a_n1097_n140# VSUBS sky130_fd_pr__nfet_01v8 ad=4.06e+11p pd=3.38e+06u as=4.06e+11p ps=3.38e+06u w=1.4e+06u l=600000u
X3 a_505_n140# a_385_n194# a_327_n140# VSUBS sky130_fd_pr__nfet_01v8 ad=4.06e+11p pd=3.38e+06u as=4.06e+11p ps=3.38e+06u w=1.4e+06u l=600000u
X4 a_n385_n140# a_n505_n194# a_n563_n140# VSUBS sky130_fd_pr__nfet_01v8 ad=4.06e+11p pd=3.38e+06u as=0p ps=0u w=1.4e+06u l=600000u
X5 a_1395_n140# a_1275_n194# a_1217_n140# VSUBS sky130_fd_pr__nfet_01v8 ad=4.06e+11p pd=3.38e+06u as=4.06e+11p ps=3.38e+06u w=1.4e+06u l=600000u
X6 a_327_n140# a_207_n194# a_149_n140# VSUBS sky130_fd_pr__nfet_01v8 ad=0p pd=0u as=4.06e+11p ps=3.38e+06u w=1.4e+06u l=600000u
X7 a_149_n140# a_29_n194# a_n29_n140# VSUBS sky130_fd_pr__nfet_01v8 ad=0p pd=0u as=0p ps=0u w=1.4e+06u l=600000u
X8 a_861_n140# a_741_n194# a_683_n140# VSUBS sky130_fd_pr__nfet_01v8 ad=4.06e+11p pd=3.38e+06u as=4.06e+11p ps=3.38e+06u w=1.4e+06u l=600000u
X9 a_n207_n140# a_n327_n194# a_n385_n140# VSUBS sky130_fd_pr__nfet_01v8 ad=0p pd=0u as=0p ps=0u w=1.4e+06u l=600000u
X10 a_1217_n140# a_1097_n194# a_1039_n140# VSUBS sky130_fd_pr__nfet_01v8 ad=0p pd=0u as=4.06e+11p ps=3.38e+06u w=1.4e+06u l=600000u
X11 a_n1275_n140# a_n1395_n194# a_n1453_n140# VSUBS sky130_fd_pr__nfet_01v8 ad=4.06e+11p pd=3.38e+06u as=4.06e+11p ps=3.38e+06u w=1.4e+06u l=600000u
X12 a_n741_n140# a_n861_n194# a_n919_n140# VSUBS sky130_fd_pr__nfet_01v8 ad=0p pd=0u as=0p ps=0u w=1.4e+06u l=600000u
X13 a_n1097_n140# a_n1217_n194# a_n1275_n140# VSUBS sky130_fd_pr__nfet_01v8 ad=0p pd=0u as=0p ps=0u w=1.4e+06u l=600000u
X14 a_683_n140# a_563_n194# a_505_n140# VSUBS sky130_fd_pr__nfet_01v8 ad=0p pd=0u as=0p ps=0u w=1.4e+06u l=600000u
X15 a_1039_n140# a_919_n194# a_861_n140# VSUBS sky130_fd_pr__nfet_01v8 ad=0p pd=0u as=0p ps=0u w=1.4e+06u l=600000u
.ends

.subckt sky130_fd_pr__nfet_01v8_KEEN2X a_n1008_n140# a_2374_n140# a_1306_n140# a_n652_n140#
+ a_652_n194# a_n1662_n194# a_772_n140# a_n2730_n194# a_n1720_n140# a_n60_n194# a_2076_n194#
+ a_1008_n194# a_2196_n140# a_n474_n140# a_n416_n194# a_1128_n140# a_474_n194# a_n1484_n194#
+ a_n2552_n194# a_594_n140# a_n1542_n140# a_n2610_n140# a_1720_n194# a_1840_n140#
+ a_n238_n194# a_n2908_n194# a_3086_n140# a_n296_n140# a_n1898_n140# a_n2966_n140#
+ a_296_n194# a_2018_n140# a_60_n140# a_n1306_n194# a_n2374_n194# a_n1364_n140# a_1542_n194#
+ a_416_n140# a_n2432_n140# a_2610_n194# a_n950_n194# a_1662_n140# a_2730_n140# a_2966_n194#
+ a_1898_n194# a_n2788_n140# a_n118_n140# a_118_n194# a_n2196_n194# a_n1128_n194#
+ a_238_n140# a_n1186_n140# a_n2254_n140# a_2432_n194# a_1364_n194# a_n772_n194# a_2552_n140#
+ a_1484_n140# a_n830_n140# a_2788_n194# a_830_n194# a_n1840_n194# a_950_n140# a_n3086_n194#
+ a_2908_n140# a_1186_n194# a_n2018_n194# a_n2076_n140# a_n3144_n140# a_2254_n194#
+ a_n594_n194# VSUBS
X0 a_2374_n140# a_2254_n194# a_2196_n140# VSUBS sky130_fd_pr__nfet_01v8 ad=4.06e+11p pd=3.38e+06u as=4.06e+11p ps=3.38e+06u w=1.4e+06u l=600000u
X1 a_n2788_n140# a_n2908_n194# a_n2966_n140# VSUBS sky130_fd_pr__nfet_01v8 ad=4.06e+11p pd=3.38e+06u as=4.06e+11p ps=3.38e+06u w=1.4e+06u l=600000u
X2 a_n2432_n140# a_n2552_n194# a_n2610_n140# VSUBS sky130_fd_pr__nfet_01v8 ad=4.06e+11p pd=3.38e+06u as=4.06e+11p ps=3.38e+06u w=1.4e+06u l=600000u
X3 a_1128_n140# a_1008_n194# a_950_n140# VSUBS sky130_fd_pr__nfet_01v8 ad=4.06e+11p pd=3.38e+06u as=4.06e+11p ps=3.38e+06u w=1.4e+06u l=600000u
X4 a_n1186_n140# a_n1306_n194# a_n1364_n140# VSUBS sky130_fd_pr__nfet_01v8 ad=4.06e+11p pd=3.38e+06u as=4.06e+11p ps=3.38e+06u w=1.4e+06u l=600000u
X5 a_772_n140# a_652_n194# a_594_n140# VSUBS sky130_fd_pr__nfet_01v8 ad=4.06e+11p pd=3.38e+06u as=4.06e+11p ps=3.38e+06u w=1.4e+06u l=600000u
X6 a_1662_n140# a_1542_n194# a_1484_n140# VSUBS sky130_fd_pr__nfet_01v8 ad=4.06e+11p pd=3.38e+06u as=4.06e+11p ps=3.38e+06u w=1.4e+06u l=600000u
X7 a_n2966_n140# a_n3086_n194# a_n3144_n140# VSUBS sky130_fd_pr__nfet_01v8 ad=0p pd=0u as=4.06e+11p ps=3.38e+06u w=1.4e+06u l=600000u
X8 a_2730_n140# a_2610_n194# a_2552_n140# VSUBS sky130_fd_pr__nfet_01v8 ad=4.06e+11p pd=3.38e+06u as=4.06e+11p ps=3.38e+06u w=1.4e+06u l=600000u
X9 a_n118_n140# a_n238_n194# a_n296_n140# VSUBS sky130_fd_pr__nfet_01v8 ad=4.06e+11p pd=3.38e+06u as=4.06e+11p ps=3.38e+06u w=1.4e+06u l=600000u
X10 a_2196_n140# a_2076_n194# a_2018_n140# VSUBS sky130_fd_pr__nfet_01v8 ad=0p pd=0u as=4.06e+11p ps=3.38e+06u w=1.4e+06u l=600000u
X11 a_n2610_n140# a_n2730_n194# a_n2788_n140# VSUBS sky130_fd_pr__nfet_01v8 ad=0p pd=0u as=0p ps=0u w=1.4e+06u l=600000u
X12 a_n2254_n140# a_n2374_n194# a_n2432_n140# VSUBS sky130_fd_pr__nfet_01v8 ad=4.06e+11p pd=3.38e+06u as=0p ps=0u w=1.4e+06u l=600000u
X13 a_n652_n140# a_n772_n194# a_n830_n140# VSUBS sky130_fd_pr__nfet_01v8 ad=4.06e+11p pd=3.38e+06u as=4.06e+11p ps=3.38e+06u w=1.4e+06u l=600000u
X14 a_2018_n140# a_1898_n194# a_1840_n140# VSUBS sky130_fd_pr__nfet_01v8 ad=0p pd=0u as=4.06e+11p ps=3.38e+06u w=1.4e+06u l=600000u
X15 a_n1008_n140# a_n1128_n194# a_n1186_n140# VSUBS sky130_fd_pr__nfet_01v8 ad=4.06e+11p pd=3.38e+06u as=0p ps=0u w=1.4e+06u l=600000u
X16 a_594_n140# a_474_n194# a_416_n140# VSUBS sky130_fd_pr__nfet_01v8 ad=0p pd=0u as=4.06e+11p ps=3.38e+06u w=1.4e+06u l=600000u
X17 a_60_n140# a_n60_n194# a_n118_n140# VSUBS sky130_fd_pr__nfet_01v8 ad=4.06e+11p pd=3.38e+06u as=0p ps=0u w=1.4e+06u l=600000u
X18 a_3086_n140# a_2966_n194# a_2908_n140# VSUBS sky130_fd_pr__nfet_01v8 ad=4.06e+11p pd=3.38e+06u as=4.06e+11p ps=3.38e+06u w=1.4e+06u l=600000u
X19 a_1484_n140# a_1364_n194# a_1306_n140# VSUBS sky130_fd_pr__nfet_01v8 ad=0p pd=0u as=4.06e+11p ps=3.38e+06u w=1.4e+06u l=600000u
X20 a_n1542_n140# a_n1662_n194# a_n1720_n140# VSUBS sky130_fd_pr__nfet_01v8 ad=4.06e+11p pd=3.38e+06u as=4.06e+11p ps=3.38e+06u w=1.4e+06u l=600000u
X21 a_2552_n140# a_2432_n194# a_2374_n140# VSUBS sky130_fd_pr__nfet_01v8 ad=0p pd=0u as=0p ps=0u w=1.4e+06u l=600000u
X22 a_950_n140# a_830_n194# a_772_n140# VSUBS sky130_fd_pr__nfet_01v8 ad=0p pd=0u as=0p ps=0u w=1.4e+06u l=600000u
X23 a_n2076_n140# a_n2196_n194# a_n2254_n140# VSUBS sky130_fd_pr__nfet_01v8 ad=4.06e+11p pd=3.38e+06u as=0p ps=0u w=1.4e+06u l=600000u
X24 a_n830_n140# a_n950_n194# a_n1008_n140# VSUBS sky130_fd_pr__nfet_01v8 ad=0p pd=0u as=0p ps=0u w=1.4e+06u l=600000u
X25 a_n474_n140# a_n594_n194# a_n652_n140# VSUBS sky130_fd_pr__nfet_01v8 ad=4.06e+11p pd=3.38e+06u as=0p ps=0u w=1.4e+06u l=600000u
X26 a_1840_n140# a_1720_n194# a_1662_n140# VSUBS sky130_fd_pr__nfet_01v8 ad=0p pd=0u as=0p ps=0u w=1.4e+06u l=600000u
X27 a_416_n140# a_296_n194# a_238_n140# VSUBS sky130_fd_pr__nfet_01v8 ad=0p pd=0u as=4.06e+11p ps=3.38e+06u w=1.4e+06u l=600000u
X28 a_2908_n140# a_2788_n194# a_2730_n140# VSUBS sky130_fd_pr__nfet_01v8 ad=0p pd=0u as=0p ps=0u w=1.4e+06u l=600000u
X29 a_n1898_n140# a_n2018_n194# a_n2076_n140# VSUBS sky130_fd_pr__nfet_01v8 ad=4.06e+11p pd=3.38e+06u as=0p ps=0u w=1.4e+06u l=600000u
X30 a_n296_n140# a_n416_n194# a_n474_n140# VSUBS sky130_fd_pr__nfet_01v8 ad=0p pd=0u as=0p ps=0u w=1.4e+06u l=600000u
X31 a_1306_n140# a_1186_n194# a_1128_n140# VSUBS sky130_fd_pr__nfet_01v8 ad=0p pd=0u as=0p ps=0u w=1.4e+06u l=600000u
X32 a_n1720_n140# a_n1840_n194# a_n1898_n140# VSUBS sky130_fd_pr__nfet_01v8 ad=0p pd=0u as=0p ps=0u w=1.4e+06u l=600000u
X33 a_n1364_n140# a_n1484_n194# a_n1542_n140# VSUBS sky130_fd_pr__nfet_01v8 ad=0p pd=0u as=0p ps=0u w=1.4e+06u l=600000u
X34 a_238_n140# a_118_n194# a_60_n140# VSUBS sky130_fd_pr__nfet_01v8 ad=0p pd=0u as=0p ps=0u w=1.4e+06u l=600000u
.ends

.subckt sky130_fd_pr__nfet_01v8_VJ4JGY a_n352_n194# a_n60_n194# a_n644_n194# a_n936_n194#
+ a_n410_n140# a_n994_n140# a_n702_n140# a_n232_n140# a_n524_n140# a_524_n194# a_232_n194#
+ a_n816_n140# a_816_n194# a_644_n140# a_352_n140# a_936_n140# a_60_n140# a_174_n140#
+ a_466_n140# a_758_n140# a_n118_n140# VSUBS
X0 a_n232_n140# a_n352_n194# a_n410_n140# VSUBS sky130_fd_pr__nfet_01v8 ad=4.06e+11p pd=3.38e+06u as=4.06e+11p ps=3.38e+06u w=1.4e+06u l=600000u
X1 a_n524_n140# a_n644_n194# a_n702_n140# VSUBS sky130_fd_pr__nfet_01v8 ad=4.06e+11p pd=3.38e+06u as=4.06e+11p ps=3.38e+06u w=1.4e+06u l=600000u
X2 a_n816_n140# a_n936_n194# a_n994_n140# VSUBS sky130_fd_pr__nfet_01v8 ad=4.06e+11p pd=3.38e+06u as=4.06e+11p ps=3.38e+06u w=1.4e+06u l=600000u
X3 a_60_n140# a_n60_n194# a_n118_n140# VSUBS sky130_fd_pr__nfet_01v8 ad=4.06e+11p pd=3.38e+06u as=4.06e+11p ps=3.38e+06u w=1.4e+06u l=600000u
X4 a_352_n140# a_232_n194# a_174_n140# VSUBS sky130_fd_pr__nfet_01v8 ad=4.06e+11p pd=3.38e+06u as=4.06e+11p ps=3.38e+06u w=1.4e+06u l=600000u
X5 a_644_n140# a_524_n194# a_466_n140# VSUBS sky130_fd_pr__nfet_01v8 ad=4.06e+11p pd=3.38e+06u as=4.06e+11p ps=3.38e+06u w=1.4e+06u l=600000u
X6 a_936_n140# a_816_n194# a_758_n140# VSUBS sky130_fd_pr__nfet_01v8 ad=4.06e+11p pd=3.38e+06u as=4.06e+11p ps=3.38e+06u w=1.4e+06u l=600000u
.ends

.subckt sky130_fd_pr__pfet_01v8_E4DCBA a_n1008_n140# a_n416_n205# a_1306_n140# a_n652_n140#
+ a_474_n205# a_n1484_n205# a_772_n140# a_n1720_n140# a_1720_n205# a_n238_n205# a_n474_n140#
+ a_296_n205# a_1128_n140# a_594_n140# a_1542_n205# a_n1306_n205# a_n1542_n140# a_n950_n205#
+ w_n2112_n241# a_1840_n140# a_1898_n205# a_n296_n140# a_n1898_n140# a_2018_n140#
+ a_60_n140# a_118_n205# a_n1128_n205# a_n1364_n140# a_1364_n205# a_416_n140# a_n772_n205#
+ a_1662_n140# a_830_n205# a_n1840_n205# a_n118_n140# a_1186_n205# a_n2018_n205# a_238_n140#
+ a_n1186_n140# a_n594_n205# a_1484_n140# a_n830_n140# a_652_n205# a_n1662_n205# a_950_n140#
+ a_n60_n205# a_n2076_n140# a_1008_n205#
X0 a_1662_n140# a_1542_n205# a_1484_n140# w_n2112_n241# sky130_fd_pr__pfet_01v8 ad=4.06e+11p pd=3.38e+06u as=4.06e+11p ps=3.38e+06u w=1.4e+06u l=600000u
X1 a_n118_n140# a_n238_n205# a_n296_n140# w_n2112_n241# sky130_fd_pr__pfet_01v8 ad=4.06e+11p pd=3.38e+06u as=4.06e+11p ps=3.38e+06u w=1.4e+06u l=600000u
X2 a_n652_n140# a_n772_n205# a_n830_n140# w_n2112_n241# sky130_fd_pr__pfet_01v8 ad=4.06e+11p pd=3.38e+06u as=4.06e+11p ps=3.38e+06u w=1.4e+06u l=600000u
X3 a_2018_n140# a_1898_n205# a_1840_n140# w_n2112_n241# sky130_fd_pr__pfet_01v8 ad=4.06e+11p pd=3.38e+06u as=4.06e+11p ps=3.38e+06u w=1.4e+06u l=600000u
X4 a_n1008_n140# a_n1128_n205# a_n1186_n140# w_n2112_n241# sky130_fd_pr__pfet_01v8 ad=4.06e+11p pd=3.38e+06u as=4.06e+11p ps=3.38e+06u w=1.4e+06u l=600000u
X5 a_594_n140# a_474_n205# a_416_n140# w_n2112_n241# sky130_fd_pr__pfet_01v8 ad=4.06e+11p pd=3.38e+06u as=4.06e+11p ps=3.38e+06u w=1.4e+06u l=600000u
X6 a_60_n140# a_n60_n205# a_n118_n140# w_n2112_n241# sky130_fd_pr__pfet_01v8 ad=4.06e+11p pd=3.38e+06u as=0p ps=0u w=1.4e+06u l=600000u
X7 a_1484_n140# a_1364_n205# a_1306_n140# w_n2112_n241# sky130_fd_pr__pfet_01v8 ad=0p pd=0u as=4.06e+11p ps=3.38e+06u w=1.4e+06u l=600000u
X8 a_n1542_n140# a_n1662_n205# a_n1720_n140# w_n2112_n241# sky130_fd_pr__pfet_01v8 ad=4.06e+11p pd=3.38e+06u as=4.06e+11p ps=3.38e+06u w=1.4e+06u l=600000u
X9 a_950_n140# a_830_n205# a_772_n140# w_n2112_n241# sky130_fd_pr__pfet_01v8 ad=4.06e+11p pd=3.38e+06u as=4.06e+11p ps=3.38e+06u w=1.4e+06u l=600000u
X10 a_n830_n140# a_n950_n205# a_n1008_n140# w_n2112_n241# sky130_fd_pr__pfet_01v8 ad=0p pd=0u as=0p ps=0u w=1.4e+06u l=600000u
X11 a_n474_n140# a_n594_n205# a_n652_n140# w_n2112_n241# sky130_fd_pr__pfet_01v8 ad=4.06e+11p pd=3.38e+06u as=0p ps=0u w=1.4e+06u l=600000u
X12 a_1840_n140# a_1720_n205# a_1662_n140# w_n2112_n241# sky130_fd_pr__pfet_01v8 ad=0p pd=0u as=0p ps=0u w=1.4e+06u l=600000u
X13 a_416_n140# a_296_n205# a_238_n140# w_n2112_n241# sky130_fd_pr__pfet_01v8 ad=0p pd=0u as=4.06e+11p ps=3.38e+06u w=1.4e+06u l=600000u
X14 a_n1898_n140# a_n2018_n205# a_n2076_n140# w_n2112_n241# sky130_fd_pr__pfet_01v8 ad=4.06e+11p pd=3.38e+06u as=4.06e+11p ps=3.38e+06u w=1.4e+06u l=600000u
X15 a_n296_n140# a_n416_n205# a_n474_n140# w_n2112_n241# sky130_fd_pr__pfet_01v8 ad=0p pd=0u as=0p ps=0u w=1.4e+06u l=600000u
X16 a_n1720_n140# a_n1840_n205# a_n1898_n140# w_n2112_n241# sky130_fd_pr__pfet_01v8 ad=0p pd=0u as=0p ps=0u w=1.4e+06u l=600000u
X17 a_1306_n140# a_1186_n205# a_1128_n140# w_n2112_n241# sky130_fd_pr__pfet_01v8 ad=0p pd=0u as=4.06e+11p ps=3.38e+06u w=1.4e+06u l=600000u
X18 a_n1364_n140# a_n1484_n205# a_n1542_n140# w_n2112_n241# sky130_fd_pr__pfet_01v8 ad=4.06e+11p pd=3.38e+06u as=0p ps=0u w=1.4e+06u l=600000u
X19 a_238_n140# a_118_n205# a_60_n140# w_n2112_n241# sky130_fd_pr__pfet_01v8 ad=0p pd=0u as=0p ps=0u w=1.4e+06u l=600000u
X20 a_1128_n140# a_1008_n205# a_950_n140# w_n2112_n241# sky130_fd_pr__pfet_01v8 ad=0p pd=0u as=0p ps=0u w=1.4e+06u l=600000u
X21 a_n1186_n140# a_n1306_n205# a_n1364_n140# w_n2112_n241# sky130_fd_pr__pfet_01v8 ad=0p pd=0u as=0p ps=0u w=1.4e+06u l=600000u
X22 a_772_n140# a_652_n205# a_594_n140# w_n2112_n241# sky130_fd_pr__pfet_01v8 ad=0p pd=0u as=0p ps=0u w=1.4e+06u l=600000u
.ends

.subckt sky130_fd_pr__pfet_01v8_UNG2NQ a_n416_n136# a_352_n136# a_n128_n136# a_n224_n136#
+ a_64_n136# a_160_n136# a_n320_n136# w_n646_n356# a_n32_n136# a_n508_n136# a_448_n136#
+ a_n512_n234# a_256_n136#
X0 a_n224_n136# a_n512_n234# a_n320_n136# w_n646_n356# sky130_fd_pr__pfet_01v8 ad=4.488e+11p pd=3.38e+06u as=4.488e+11p ps=3.38e+06u w=1.36e+06u l=150000u
X1 a_352_n136# a_n512_n234# a_256_n136# w_n646_n356# sky130_fd_pr__pfet_01v8 ad=4.488e+11p pd=3.38e+06u as=4.488e+11p ps=3.38e+06u w=1.36e+06u l=150000u
X2 a_n128_n136# a_n512_n234# a_n224_n136# w_n646_n356# sky130_fd_pr__pfet_01v8 ad=4.488e+11p pd=3.38e+06u as=0p ps=0u w=1.36e+06u l=150000u
X3 a_256_n136# a_n512_n234# a_160_n136# w_n646_n356# sky130_fd_pr__pfet_01v8 ad=0p pd=0u as=4.488e+11p ps=3.38e+06u w=1.36e+06u l=150000u
X4 a_n416_n136# a_n512_n234# a_n508_n136# w_n646_n356# sky130_fd_pr__pfet_01v8 ad=4.488e+11p pd=3.38e+06u as=4.216e+11p ps=3.34e+06u w=1.36e+06u l=150000u
X5 a_n320_n136# a_n512_n234# a_n416_n136# w_n646_n356# sky130_fd_pr__pfet_01v8 ad=0p pd=0u as=0p ps=0u w=1.36e+06u l=150000u
X6 a_n32_n136# a_n512_n234# a_n128_n136# w_n646_n356# sky130_fd_pr__pfet_01v8 ad=4.488e+11p pd=3.38e+06u as=0p ps=0u w=1.36e+06u l=150000u
X7 a_448_n136# a_n512_n234# a_352_n136# w_n646_n356# sky130_fd_pr__pfet_01v8 ad=4.216e+11p pd=3.34e+06u as=0p ps=0u w=1.36e+06u l=150000u
X8 a_64_n136# a_n512_n234# a_n32_n136# w_n646_n356# sky130_fd_pr__pfet_01v8 ad=4.488e+11p pd=3.38e+06u as=0p ps=0u w=1.36e+06u l=150000u
X9 a_160_n136# a_n512_n234# a_64_n136# w_n646_n356# sky130_fd_pr__pfet_01v8 ad=0p pd=0u as=0p ps=0u w=1.36e+06u l=150000u
.ends

.subckt sky130_fd_pr__nfet_01v8_6J4AMR a_256_n52# a_n32_n52# a_n224_n52# a_448_n52#
+ a_n416_n52# a_160_n52# a_n610_n226# a_n128_n52# a_n512_n140# a_352_n52# a_n320_n52#
+ a_n508_n52# a_64_n52#
X0 a_n32_n52# a_n512_n140# a_n128_n52# a_n610_n226# sky130_fd_pr__nfet_01v8 ad=1.716e+11p pd=1.7e+06u as=1.716e+11p ps=1.7e+06u w=520000u l=150000u
X1 a_n416_n52# a_n512_n140# a_n508_n52# a_n610_n226# sky130_fd_pr__nfet_01v8 ad=1.716e+11p pd=1.7e+06u as=1.612e+11p ps=1.66e+06u w=520000u l=150000u
X2 a_n224_n52# a_n512_n140# a_n320_n52# a_n610_n226# sky130_fd_pr__nfet_01v8 ad=1.716e+11p pd=1.7e+06u as=1.716e+11p ps=1.7e+06u w=520000u l=150000u
X3 a_n128_n52# a_n512_n140# a_n224_n52# a_n610_n226# sky130_fd_pr__nfet_01v8 ad=0p pd=0u as=0p ps=0u w=520000u l=150000u
X4 a_n320_n52# a_n512_n140# a_n416_n52# a_n610_n226# sky130_fd_pr__nfet_01v8 ad=0p pd=0u as=0p ps=0u w=520000u l=150000u
X5 a_160_n52# a_n512_n140# a_64_n52# a_n610_n226# sky130_fd_pr__nfet_01v8 ad=1.716e+11p pd=1.7e+06u as=1.716e+11p ps=1.7e+06u w=520000u l=150000u
X6 a_352_n52# a_n512_n140# a_256_n52# a_n610_n226# sky130_fd_pr__nfet_01v8 ad=1.716e+11p pd=1.7e+06u as=1.716e+11p ps=1.7e+06u w=520000u l=150000u
X7 a_256_n52# a_n512_n140# a_160_n52# a_n610_n226# sky130_fd_pr__nfet_01v8 ad=0p pd=0u as=0p ps=0u w=520000u l=150000u
X8 a_448_n52# a_n512_n140# a_352_n52# a_n610_n226# sky130_fd_pr__nfet_01v8 ad=1.612e+11p pd=1.66e+06u as=0p ps=0u w=520000u l=150000u
X9 a_64_n52# a_n512_n140# a_n32_n52# a_n610_n226# sky130_fd_pr__nfet_01v8 ad=0p pd=0u as=0p ps=0u w=520000u l=150000u
.ends

.subckt transmission_gate out en_b en VSS VDD in
Xsky130_fd_pr__pfet_01v8_UNG2NQ_0 in in out in out in out VDD in out out en_b out
+ sky130_fd_pr__pfet_01v8_UNG2NQ
Xsky130_fd_pr__nfet_01v8_6J4AMR_0 out in in out in in VSS out en in out out out sky130_fd_pr__nfet_01v8_6J4AMR
.ends

.subckt unit_cap_mim_m3m4 c1_n530_n480# m3_n630_n580#
X0 c1_n530_n480# m3_n630_n580# sky130_fd_pr__cap_mim_m3_1 l=4.8e+06u w=4.8e+06u
.ends

.subckt sc_cmfb cmc on bias_a p2_b p1 cm VSS p2 VDD op p1_b
Xtransmission_gate_10 on p1_b p1 VSS VDD transmission_gate_3_out transmission_gate
Xtransmission_gate_11 op p1_b p1 VSS VDD transmission_gate_4_out transmission_gate
Xtransmission_gate_0 transmission_gate_7_in p1_b p1 VSS VDD cm transmission_gate
Xtransmission_gate_1 transmission_gate_6_in p1_b p1 VSS VDD cm transmission_gate
Xtransmission_gate_2 transmission_gate_8_in p1_b p1 VSS VDD bias_a transmission_gate
Xtransmission_gate_3 transmission_gate_3_out p2_b p2 VSS VDD cm transmission_gate
Xunit_cap_mim_m3m4_0 transmission_gate_4_out transmission_gate_9_in unit_cap_mim_m3m4
Xtransmission_gate_4 transmission_gate_4_out p2_b p2 VSS VDD cm transmission_gate
Xunit_cap_mim_m3m4_1 on cmc unit_cap_mim_m3m4
Xtransmission_gate_5 transmission_gate_9_in p2_b p2 VSS VDD bias_a transmission_gate
Xunit_cap_mim_m3m4_2 op cmc unit_cap_mim_m3m4
Xunit_cap_mim_m3m4_30 unit_cap_mim_m3m4_30_c1_n530_n480# unit_cap_mim_m3m4_30_m3_n630_n580#
+ unit_cap_mim_m3m4
Xtransmission_gate_6 op p2_b p2 VSS VDD transmission_gate_6_in transmission_gate
Xunit_cap_mim_m3m4_20 unit_cap_mim_m3m4_20_c1_n530_n480# unit_cap_mim_m3m4_20_m3_n630_n580#
+ unit_cap_mim_m3m4
Xunit_cap_mim_m3m4_3 transmission_gate_7_in transmission_gate_8_in unit_cap_mim_m3m4
Xunit_cap_mim_m3m4_31 unit_cap_mim_m3m4_31_c1_n530_n480# unit_cap_mim_m3m4_31_m3_n630_n580#
+ unit_cap_mim_m3m4
Xtransmission_gate_7 on p2_b p2 VSS VDD transmission_gate_7_in transmission_gate
Xunit_cap_mim_m3m4_10 transmission_gate_6_in transmission_gate_8_in unit_cap_mim_m3m4
Xunit_cap_mim_m3m4_21 unit_cap_mim_m3m4_21_c1_n530_n480# unit_cap_mim_m3m4_21_m3_n630_n580#
+ unit_cap_mim_m3m4
Xunit_cap_mim_m3m4_4 on cmc unit_cap_mim_m3m4
Xunit_cap_mim_m3m4_32 unit_cap_mim_m3m4_32_c1_n530_n480# unit_cap_mim_m3m4_32_m3_n630_n580#
+ unit_cap_mim_m3m4
Xunit_cap_mim_m3m4_12 transmission_gate_4_out transmission_gate_9_in unit_cap_mim_m3m4
Xunit_cap_mim_m3m4_11 on cmc unit_cap_mim_m3m4
Xtransmission_gate_8 cmc p2_b p2 VSS VDD transmission_gate_8_in transmission_gate
Xunit_cap_mim_m3m4_5 transmission_gate_6_in transmission_gate_8_in unit_cap_mim_m3m4
Xunit_cap_mim_m3m4_22 unit_cap_mim_m3m4_22_c1_n530_n480# unit_cap_mim_m3m4_22_m3_n630_n580#
+ unit_cap_mim_m3m4
Xunit_cap_mim_m3m4_23 unit_cap_mim_m3m4_23_c1_n530_n480# unit_cap_mim_m3m4_23_m3_n630_n580#
+ unit_cap_mim_m3m4
Xunit_cap_mim_m3m4_34 unit_cap_mim_m3m4_34_c1_n530_n480# unit_cap_mim_m3m4_34_m3_n630_n580#
+ unit_cap_mim_m3m4
Xunit_cap_mim_m3m4_33 unit_cap_mim_m3m4_33_c1_n530_n480# unit_cap_mim_m3m4_33_m3_n630_n580#
+ unit_cap_mim_m3m4
Xunit_cap_mim_m3m4_24 unit_cap_mim_m3m4_24_c1_n530_n480# unit_cap_mim_m3m4_24_m3_n630_n580#
+ unit_cap_mim_m3m4
Xunit_cap_mim_m3m4_13 on cmc unit_cap_mim_m3m4
Xunit_cap_mim_m3m4_6 transmission_gate_3_out transmission_gate_9_in unit_cap_mim_m3m4
Xunit_cap_mim_m3m4_7 op cmc unit_cap_mim_m3m4