* NGSPICE file created from ota_flat.ext - technology: sky130A

.subckt ota_flat ip in p1 p1_b p2 p2_b op on i_bias cm VDD VSS
X0 cm p2 sc_cmfb_0/transmission_gate_4/out VSS sky130_fd_pr__nfet_01v8 ad=1.1958e+13p pd=1.0498e+08u as=1.8668e+12p ps=1.862e+07u w=520000u l=150000u
X1 a_n1110_n5852# a_n1110_n5852# bias_d VSS sky130_fd_pr__nfet_01v8 ad=1.1368e+13p pd=9.464e+07u as=1.456e+13p ps=1.216e+08u w=1.4e+06u l=600000u
X2 a_n1651_n11400# bias_d op VSS sky130_fd_pr__nfet_01v8 ad=1.582e+13p pd=1.318e+08u as=1.09496e+13p ps=9.46e+07u w=1.4e+06u l=600000u
X3 sc_cmfb_0/transmission_gate_4/out p2 cm VSS sky130_fd_pr__nfet_01v8 ad=0p pd=0u as=0p ps=0u w=520000u l=150000u
X4 sc_cmfb_0/transmission_gate_5/in p1_b sc_cmfb_0/transmission_gate_8/in VDD sky130_fd_pr__pfet_01v8 ad=4.488e+12p pd=3.38e+07u as=4.8824e+12p ps=3.71e+07u w=1.36e+06u l=150000u
X5 cm p2 sc_cmfb_0/transmission_gate_4/out VSS sky130_fd_pr__nfet_01v8 ad=0p pd=0u as=0p ps=0u w=520000u l=150000u
X6 a_12106_n11502# cm VSS VSS sky130_fd_pr__nfet_01v8 ad=8.12e+11p pd=6.76e+06u as=8.323e+13p ps=6.929e+08u w=1.4e+06u l=600000u
X7 op p2_b sc_cmfb_0/transmission_gate_6/in VDD sky130_fd_pr__pfet_01v8 ad=1.01488e+13p pd=8.096e+07u as=4.8824e+12p ps=3.71e+07u w=1.36e+06u l=150000u
X8 sc_cmfb_0/transmission_gate_5/out p2 sc_cmfb_0/transmission_gate_5/in VSS sky130_fd_pr__nfet_01v8 ad=1.8668e+12p pd=1.862e+07u as=8.212e+12p ps=7.108e+07u w=520000u l=150000u
X9 a_n5928_n13620# bias_c op VDD sky130_fd_pr__pfet_01v8 ad=1.0556e+13p pd=8.788e+07u as=0p ps=0u w=1.4e+06u l=600000u
X10 a_12398_n9962# cm cm VSS sky130_fd_pr__nfet_01v8 ad=8.12e+11p pd=6.76e+06u as=0p ps=0u w=1.4e+06u l=600000u
X11 VDD VDD VDD VDD sky130_fd_pr__pfet_01v8 ad=2.3884e+13p pd=1.9932e+08u as=0p ps=0u w=1.4e+06u l=600000u
X12 sc_cmfb_0/transmission_gate_4/out p1_b op VDD sky130_fd_pr__pfet_01v8 ad=4.8824e+12p pd=3.71e+07u as=0p ps=0u w=1.36e+06u l=150000u
X13 a_n1651_n13400# sc_cmfb_0/transmission_gate_5/in VSS VSS sky130_fd_pr__nfet_01v8 ad=1.624e+13p pd=1.352e+08u as=0p ps=0u w=1.4e+06u l=600000u
X14 op p2 sc_cmfb_0/transmission_gate_6/in VSS sky130_fd_pr__nfet_01v8 ad=0p pd=0u as=1.8668e+12p ps=1.862e+07u w=520000u l=150000u
X15 VDD VDD a_n5928_n13620# VDD sky130_fd_pr__pfet_01v8 ad=0p pd=0u as=0p ps=0u w=1.4e+06u l=600000u
X16 sc_cmfb_0/transmission_gate_5/in bias_d a_n2185_n13400# VSS sky130_fd_pr__nfet_01v8 ad=0p pd=0u as=1.2152e+13p ps=1.0136e+08u w=1.4e+06u l=600000u
X17 a_n5928_n12940# ip a_n5580_n13620# VSS sky130_fd_pr__nfet_01v8_lvt ad=3.48e+12p pd=2.98e+07u as=4.7212e+13p ps=3.9404e+08u w=1.2e+06u l=200000u
X18 cm p2 sc_cmfb_0/transmission_gate_4/out VSS sky130_fd_pr__nfet_01v8 ad=0p pd=0u as=0p ps=0u w=520000u l=150000u
X19 a_n6313_n3270# a_n6313_n3270# a_n6313_n3270# VDD sky130_fd_pr__pfet_01v8_lvt ad=4.872e+12p pd=4.056e+07u as=0p ps=0u w=1.4e+06u l=600000u
X20 a_n5580_n13620# sc_cmfb_0/transmission_gate_5/in VSS VSS sky130_fd_pr__nfet_01v8 ad=0p pd=0u as=0p ps=0u w=1.4e+06u l=600000u
X21 a_n5580_n13620# in a_n5928_n13620# VSS sky130_fd_pr__nfet_01v8_lvt ad=0p pd=0u as=3.48e+12p ps=2.98e+07u w=1.2e+06u l=200000u
X22 sc_cmfb_0/transmission_gate_4/out p2 cm VSS sky130_fd_pr__nfet_01v8 ad=0p pd=0u as=0p ps=0u w=520000u l=150000u
X23 a_n5580_n13620# sc_cmfb_0/transmission_gate_5/in VSS VSS sky130_fd_pr__nfet_01v8 ad=0p pd=0u as=0p ps=0u w=1.4e+06u l=600000u
X24 a_n5580_n13620# a_n5580_n13620# a_n5580_n13620# VSS sky130_fd_pr__nfet_01v8 ad=0p pd=0u as=0p ps=0u w=1.4e+06u l=600000u
X25 sc_cmfb_0/transmission_gate_7/in p1_b cm VDD sky130_fd_pr__pfet_01v8 ad=4.8824e+12p pd=3.71e+07u as=1.06e+13p ps=8.112e+07u w=1.36e+06u l=150000u
X26 VSS sc_cmfb_0/transmission_gate_5/in a_n5580_n13620# VSS sky130_fd_pr__nfet_01v8 ad=0p pd=0u as=0p ps=0u w=1.4e+06u l=600000u
X27 VSS sc_cmfb_0/transmission_gate_8/out a_n5580_n13620# VSS sky130_fd_pr__nfet_01v8 ad=0p pd=0u as=0p ps=0u w=1.4e+06u l=600000u
X28 VSS sc_cmfb_0/transmission_gate_5/in a_n1651_n11400# VSS sky130_fd_pr__nfet_01v8 ad=0p pd=0u as=0p ps=0u w=1.4e+06u l=600000u
X29 on bias_d a_n1651_n13400# VSS sky130_fd_pr__nfet_01v8 ad=1.09496e+13p pd=9.46e+07u as=0p ps=0u w=1.4e+06u l=600000u
X30 a_n5928_n12940# bias_b VDD VDD sky130_fd_pr__pfet_01v8_lvt ad=1.0556e+13p pd=8.788e+07u as=0p ps=0u w=1.4e+06u l=600000u
X31 VDD VDD VDD VDD sky130_fd_pr__pfet_01v8_lvt ad=0p pd=0u as=0p ps=0u w=1.4e+06u l=600000u
X32 sc_cmfb_0/transmission_gate_8/in p1 sc_cmfb_0/transmission_gate_5/in VSS sky130_fd_pr__nfet_01v8 ad=1.8668e+12p pd=1.862e+07u as=0p ps=0u w=520000u l=150000u
X33 a_n1110_n5852# a_n1110_n5852# bias_d VSS sky130_fd_pr__nfet_01v8 ad=0p pd=0u as=0p ps=0u w=1.4e+06u l=600000u
X34 c1_12802_1831# m3_12702_1731# sky130_fd_pr__cap_mim_m3_1 l=4.8e+06u w=4.8e+06u
X35 on p1_b sc_cmfb_0/transmission_gate_3/out VDD sky130_fd_pr__pfet_01v8 ad=1.01488e+13p pd=8.096e+07u as=4.8824e+12p ps=3.71e+07u w=1.36e+06u l=150000u
X36 bias_b bias_b bias_c VSS sky130_fd_pr__nfet_01v8_lvt ad=1.624e+13p pd=1.352e+08u as=2.1112e+13p ps=1.7576e+08u w=1.4e+06u l=600000u
X37 op p1 sc_cmfb_0/transmission_gate_4/out VSS sky130_fd_pr__nfet_01v8 ad=0p pd=0u as=0p ps=0u w=520000u l=150000u
X38 bias_d a_n1110_n5852# a_n1110_n5852# VSS sky130_fd_pr__nfet_01v8 ad=0p pd=0u as=0p ps=0u w=1.4e+06u l=600000u
X39 a_n5580_n13620# sc_cmfb_0/transmission_gate_5/in VSS VSS sky130_fd_pr__nfet_01v8 ad=0p pd=0u as=0p ps=0u w=1.4e+06u l=600000u
X40 VDD bias_b a_n5928_n13620# VDD sky130_fd_pr__pfet_01v8_lvt ad=0p pd=0u as=0p ps=0u w=1.4e+06u l=600000u
X41 VDD bias_b a_n6313_n4140# VDD sky130_fd_pr__pfet_01v8_lvt ad=0p pd=0u as=4.06e+12p ps=3.38e+07u w=1.4e+06u l=600000u
X42 bias_c bias_c bias_c VSS sky130_fd_pr__nfet_01v8 ad=0p pd=0u as=0p ps=0u w=1.4e+06u l=600000u
X43 a_n2185_n13400# bias_d sc_cmfb_0/transmission_gate_5/in VSS sky130_fd_pr__nfet_01v8 ad=0p pd=0u as=0p ps=0u w=1.4e+06u l=600000u
X44 bias_d a_n1110_n5852# a_n1110_n5852# VSS sky130_fd_pr__nfet_01v8 ad=0p pd=0u as=0p ps=0u w=1.4e+06u l=600000u
X45 VDD bias_b a_n5928_n12940# VDD sky130_fd_pr__pfet_01v8_lvt ad=0p pd=0u as=0p ps=0u w=1.4e+06u l=600000u
X46 VDD bias_b a_n5928_n12940# VDD sky130_fd_pr__pfet_01v8_lvt ad=0p pd=0u as=0p ps=0u w=1.4e+06u l=600000u
X47 a_n1651_n13400# bias_d on VSS sky130_fd_pr__nfet_01v8 ad=0p pd=0u as=0p ps=0u w=1.4e+06u l=600000u
X48 a_n1651_n11400# sc_cmfb_0/transmission_gate_5/in VSS VSS sky130_fd_pr__nfet_01v8 ad=0p pd=0u as=0p ps=0u w=1.4e+06u l=600000u
X49 op bias_d a_n1651_n11400# VSS sky130_fd_pr__nfet_01v8 ad=0p pd=0u as=0p ps=0u w=1.4e+06u l=600000u
X50 a_n6313_n5010# a_n6313_n5010# a_n6313_n5010# VDD sky130_fd_pr__pfet_01v8 ad=4.872e+12p pd=4.056e+07u as=0p ps=0u w=1.4e+06u l=600000u
X51 op bias_d a_n1651_n11400# VSS sky130_fd_pr__nfet_01v8 ad=0p pd=0u as=0p ps=0u w=1.4e+06u l=600000u
X52 cm p1 sc_cmfb_0/transmission_gate_7/in VSS sky130_fd_pr__nfet_01v8 ad=0p pd=0u as=1.8668e+12p ps=1.862e+07u w=520000u l=150000u
X53 a_n5928_n13620# bias_c op VDD sky130_fd_pr__pfet_01v8 ad=0p pd=0u as=0p ps=0u w=1.4e+06u l=600000u
X54 op bias_d a_n1651_n11400# VSS sky130_fd_pr__nfet_01v8 ad=0p pd=0u as=0p ps=0u w=1.4e+06u l=600000u
X55 VSS i_bias i_bias VSS sky130_fd_pr__nfet_01v8 ad=0p pd=0u as=4.872e+12p ps=4.056e+07u w=1.4e+06u l=600000u
X56 sc_cmfb_0/transmission_gate_3/out p1 on VSS sky130_fd_pr__nfet_01v8 ad=1.8668e+12p pd=1.862e+07u as=0p ps=0u w=520000u l=150000u
X57 sc_cmfb_0/transmission_gate_5/out p2_b sc_cmfb_0/transmission_gate_5/in VDD sky130_fd_pr__pfet_01v8 ad=4.8824e+12p pd=3.71e+07u as=0p ps=0u w=1.36e+06u l=150000u
X58 sc_cmfb_0/transmission_gate_3/out p2_b cm VDD sky130_fd_pr__pfet_01v8 ad=0p pd=0u as=0p ps=0u w=1.36e+06u l=150000u
X59 a_n1110_n5852# a_n1110_n5852# bias_d VSS sky130_fd_pr__nfet_01v8 ad=0p pd=0u as=0p ps=0u w=1.4e+06u l=600000u
X60 sc_cmfb_0/transmission_gate_5/in p1 sc_cmfb_0/transmission_gate_8/in VSS sky130_fd_pr__nfet_01v8 ad=0p pd=0u as=0p ps=0u w=520000u l=150000u
X61 VSS sc_cmfb_0/transmission_gate_5/in a_n5580_n13620# VSS sky130_fd_pr__nfet_01v8 ad=0p pd=0u as=0p ps=0u w=1.4e+06u l=600000u
X62 VSS sc_cmfb_0/transmission_gate_8/out a_n5580_n13620# VSS sky130_fd_pr__nfet_01v8 ad=0p pd=0u as=0p ps=0u w=1.4e+06u l=600000u
X63 op bias_d a_n1651_n11400# VSS sky130_fd_pr__nfet_01v8 ad=0p pd=0u as=0p ps=0u w=1.4e+06u l=600000u
X64 sc_cmfb_0/transmission_gate_5/out p2 sc_cmfb_0/transmission_gate_5/in VSS sky130_fd_pr__nfet_01v8 ad=0p pd=0u as=0p ps=0u w=520000u l=150000u
X65 sc_cmfb_0/transmission_gate_8/out p2_b sc_cmfb_0/transmission_gate_8/in VDD sky130_fd_pr__pfet_01v8 ad=5.2768e+12p pd=4.04e+07u as=0p ps=0u w=1.36e+06u l=150000u
X66 bias_d a_n1110_n5852# a_n1110_n5852# VSS sky130_fd_pr__nfet_01v8 ad=0p pd=0u as=0p ps=0u w=1.4e+06u l=600000u
X67 a_n2185_n13400# bias_d sc_cmfb_0/transmission_gate_5/in VSS sky130_fd_pr__nfet_01v8 ad=0p pd=0u as=0p ps=0u w=1.4e+06u l=600000u
X68 op p2_b sc_cmfb_0/transmission_gate_6/in VDD sky130_fd_pr__pfet_01v8 ad=0p pd=0u as=0p ps=0u w=1.36e+06u l=150000u
X69 VDD VDD VDD VDD sky130_fd_pr__pfet_01v8_lvt ad=0p pd=0u as=0p ps=0u w=1.4e+06u l=600000u
X70 a_n5928_n12940# bias_c on VDD sky130_fd_pr__pfet_01v8 ad=0p pd=0u as=0p ps=0u w=1.4e+06u l=600000u
X71 sc_cmfb_0/transmission_gate_6/in p1_b cm VDD sky130_fd_pr__pfet_01v8 ad=0p pd=0u as=0p ps=0u w=1.36e+06u l=150000u
X72 sc_cmfb_0/transmission_gate_4/out p1 op VSS sky130_fd_pr__nfet_01v8 ad=0p pd=0u as=0p ps=0u w=520000u l=150000u
X73 a_n5580_n13620# sc_cmfb_0/transmission_gate_8/out VSS VSS sky130_fd_pr__nfet_01v8 ad=0p pd=0u as=0p ps=0u w=1.4e+06u l=600000u
X74 bias_c bias_b bias_b VSS sky130_fd_pr__nfet_01v8_lvt ad=0p pd=0u as=0p ps=0u w=1.4e+06u l=600000u
X75 op p2 sc_cmfb_0/transmission_gate_6/in VSS sky130_fd_pr__nfet_01v8 ad=0p pd=0u as=0p ps=0u w=520000u l=150000u
X76 sc_cmfb_0/transmission_gate_8/out p1_b sc_cmfb_0/transmission_gate_5/out VDD sky130_fd_pr__pfet_01v8 ad=0p pd=0u as=0p ps=0u w=1.36e+06u l=150000u
X77 a_n1651_n13400# bias_d on VSS sky130_fd_pr__nfet_01v8 ad=0p pd=0u as=0p ps=0u w=1.4e+06u l=600000u
X78 a_n2185_n13400# bias_d sc_cmfb_0/transmission_gate_5/in VSS sky130_fd_pr__nfet_01v8 ad=0p pd=0u as=0p ps=0u w=1.4e+06u l=600000u
X79 a_n5580_n13620# sc_cmfb_0/transmission_gate_5/in VSS VSS sky130_fd_pr__nfet_01v8 ad=0p pd=0u as=0p ps=0u w=1.4e+06u l=600000u
X80 VSS sc_cmfb_0/transmission_gate_8/out a_n5580_n13620# VSS sky130_fd_pr__nfet_01v8 ad=0p pd=0u as=0p ps=0u w=1.4e+06u l=600000u
X81 sc_cmfb_0/transmission_gate_5/in bias_d a_n2185_n13400# VSS sky130_fd_pr__nfet_01v8 ad=0p pd=0u as=0p ps=0u w=1.4e+06u l=600000u
X82 c1_16402_31# m3_16302_n69# sky130_fd_pr__cap_mim_m3_1 l=4.8e+06u w=4.8e+06u
X83 c1_7402_n3569# m3_7302_n3669# sky130_fd_pr__cap_mim_m3_1 l=4.8e+06u w=4.8e+06u
X84 on bias_d a_n1651_n13400# VSS sky130_fd_pr__nfet_01v8 ad=0p pd=0u as=0p ps=0u w=1.4e+06u l=600000u
X85 sc_cmfb_0/transmission_gate_5/in bias_d a_n2185_n13400# VSS sky130_fd_pr__nfet_01v8 ad=0p pd=0u as=0p ps=0u w=1.4e+06u l=600000u
X86 cm p2_b sc_cmfb_0/transmission_gate_3/out VDD sky130_fd_pr__pfet_01v8 ad=0p pd=0u as=0p ps=0u w=1.36e+06u l=150000u
X87 bias_c bias_c bias_c VSS sky130_fd_pr__nfet_01v8_lvt ad=0p pd=0u as=0p ps=0u w=1.4e+06u l=600000u
X88 on bias_d a_n1651_n13400# VSS sky130_fd_pr__nfet_01v8 ad=0p pd=0u as=0p ps=0u w=1.4e+06u l=600000u
X89 bias_d a_n1110_n5852# a_n1110_n5852# VSS sky130_fd_pr__nfet_01v8 ad=0p pd=0u as=0p ps=0u w=1.4e+06u l=600000u
X90 a_n5580_n13620# sc_cmfb_0/transmission_gate_5/in VSS VSS sky130_fd_pr__nfet_01v8 ad=0p pd=0u as=0p ps=0u w=1.4e+06u l=600000u
X91 i_bias i_bias VSS VSS sky130_fd_pr__nfet_01v8 ad=0p pd=0u as=0p ps=0u w=1.4e+06u l=600000u
X92 sc_cmfb_0/transmission_gate_8/in p2_b sc_cmfb_0/transmission_gate_8/out VDD sky130_fd_pr__pfet_01v8 ad=0p pd=0u as=0p ps=0u w=1.36e+06u l=150000u
X93 op bias_c a_n5928_n13620# VDD sky130_fd_pr__pfet_01v8 ad=0p pd=0u as=0p ps=0u w=1.4e+06u l=600000u
X94 a_n1651_n13400# bias_d on VSS sky130_fd_pr__nfet_01v8 ad=0p pd=0u as=0p ps=0u w=1.4e+06u l=600000u
X95 VSS sc_cmfb_0/transmission_gate_8/out a_n5580_n13620# VSS sky130_fd_pr__nfet_01v8 ad=0p pd=0u as=0p ps=0u w=1.4e+06u l=600000u
X96 bias_d a_n1110_n5852# a_n1110_n5852# VSS sky130_fd_pr__nfet_01v8 ad=0p pd=0u as=0p ps=0u w=1.4e+06u l=600000u
X97 bias_d a_n1110_n5852# a_n1110_n5852# VSS sky130_fd_pr__nfet_01v8 ad=0p pd=0u as=0p ps=0u w=1.4e+06u l=600000u
X98 a_n1651_n11400# bias_d op VSS sky130_fd_pr__nfet_01v8 ad=0p pd=0u as=0p ps=0u w=1.4e+06u l=600000u
X99 sc_cmfb_0/transmission_gate_7/in p1_b cm VDD sky130_fd_pr__pfet_01v8 ad=0p pd=0u as=0p ps=0u w=1.36e+06u l=150000u
X100 a_n5580_n13620# sc_cmfb_0/transmission_gate_5/in VSS VSS sky130_fd_pr__nfet_01v8 ad=0p pd=0u as=0p ps=0u w=1.4e+06u l=600000u
X101 VSS VSS a_n1651_n11400# VSS sky130_fd_pr__nfet_01v8 ad=0p pd=0u as=0p ps=0u w=1.4e+06u l=600000u
X102 on sc_cmfb_0/transmission_gate_8/out sky130_fd_pr__cap_mim_m3_1 l=4.8e+06u w=4.8e+06u
X103 VDD VDD op VDD sky130_fd_pr__pfet_01v8 ad=0p pd=0u as=0p ps=0u w=1.4e+06u l=600000u
X104 on p1_b sc_cmfb_0/transmission_gate_3/out VDD sky130_fd_pr__pfet_01v8 ad=0p pd=0u as=0p ps=0u w=1.36e+06u l=150000u
X105 sc_cmfb_0/transmission_gate_8/in p1_b sc_cmfb_0/transmission_gate_5/in VDD sky130_fd_pr__pfet_01v8 ad=0p pd=0u as=0p ps=0u w=1.36e+06u l=150000u
X106 a_n5580_n13620# sc_cmfb_0/transmission_gate_8/out VSS VSS sky130_fd_pr__nfet_01v8 ad=0p pd=0u as=0p ps=0u w=1.4e+06u l=600000u
X107 a_n5928_n13620# bias_c op VDD sky130_fd_pr__pfet_01v8 ad=0p pd=0u as=0p ps=0u w=1.4e+06u l=600000u
X108 a_n1110_n5852# bias_c a_n6313_n5010# VDD sky130_fd_pr__pfet_01v8 ad=1.624e+12p pd=1.352e+07u as=0p ps=0u w=1.4e+06u l=600000u
X109 bias_b bias_b bias_b VSS sky130_fd_pr__nfet_01v8_lvt ad=0p pd=0u as=0p ps=0u w=1.4e+06u l=600000u
X110 on bias_d a_n1651_n13400# VSS sky130_fd_pr__nfet_01v8 ad=0p pd=0u as=0p ps=0u w=1.4e+06u l=600000u
X111 a_n5580_n13620# sc_cmfb_0/transmission_gate_5/in VSS VSS sky130_fd_pr__nfet_01v8 ad=0p pd=0u as=0p ps=0u w=1.4e+06u l=600000u
X112 a_n1651_n11400# bias_d op VSS sky130_fd_pr__nfet_01v8 ad=0p pd=0u as=0p ps=0u w=1.4e+06u l=600000u
X113 op p1_b sc_cmfb_0/transmission_gate_4/out VDD sky130_fd_pr__pfet_01v8 ad=0p pd=0u as=0p ps=0u w=1.36e+06u l=150000u
X114 VSS i_bias bias_c VSS sky130_fd_pr__nfet_01v8 ad=0p pd=0u as=0p ps=0u w=1.4e+06u l=600000u
X115 VSS sc_cmfb_0/transmission_gate_5/in a_n5580_n13620# VSS sky130_fd_pr__nfet_01v8 ad=0p pd=0u as=0p ps=0u w=1.4e+06u l=600000u
X116 on bias_d a_n1651_n13400# VSS sky130_fd_pr__nfet_01v8 ad=0p pd=0u as=0p ps=0u w=1.4e+06u l=600000u
X117 a_n1110_n5852# a_n1110_n5852# bias_d VSS sky130_fd_pr__nfet_01v8 ad=0p pd=0u as=0p ps=0u w=1.4e+06u l=600000u
X118 VSS sc_cmfb_0/transmission_gate_5/in a_n5580_n13620# VSS sky130_fd_pr__nfet_01v8 ad=0p pd=0u as=0p ps=0u w=1.4e+06u l=600000u
X119 on VSS VSS VSS sky130_fd_pr__nfet_01v8 ad=0p pd=0u as=0p ps=0u w=1.4e+06u l=600000u
X120 bias_d a_n1110_n5852# sc_cmfb_0/transmission_gate_5/in VSS sky130_fd_pr__nfet_01v8 ad=0p pd=0u as=0p ps=0u w=1.4e+06u l=600000u
X121 on bias_d a_n1651_n13400# VSS sky130_fd_pr__nfet_01v8 ad=0p pd=0u as=0p ps=0u w=1.4e+06u l=600000u
X122 a_n5928_n13620# in a_n5580_n13620# VSS sky130_fd_pr__nfet_01v8_lvt ad=0p pd=0u as=0p ps=0u w=1.2e+06u l=200000u
X123 cm cm cm VSS sky130_fd_pr__nfet_01v8 ad=0p pd=0u as=0p ps=0u w=1.4e+06u l=600000u
X124 a_n5928_n12940# a_n5928_n12940# a_n5928_n12940# VSS sky130_fd_pr__nfet_01v8_lvt ad=0p pd=0u as=0p ps=0u w=1.2e+06u l=200000u
X125 cm p1_b sc_cmfb_0/transmission_gate_7/in VDD sky130_fd_pr__pfet_01v8 ad=0p pd=0u as=0p ps=0u w=1.36e+06u l=150000u
X126 a_n1651_n13400# VSS VSS VSS sky130_fd_pr__nfet_01v8 ad=0p pd=0u as=0p ps=0u w=1.4e+06u l=600000u
X127 a_n5580_n13620# sc_cmfb_0/transmission_gate_8/out VSS VSS sky130_fd_pr__nfet_01v8 ad=0p pd=0u as=0p ps=0u w=1.4e+06u l=600000u
X128 a_n5928_n12940# bias_b VDD VDD sky130_fd_pr__pfet_01v8_lvt ad=0p pd=0u as=0p ps=0u w=1.4e+06u l=600000u
X129 a_n6313_n3270# bias_b VDD VDD sky130_fd_pr__pfet_01v8_lvt ad=0p pd=0u as=0p ps=0u w=1.4e+06u l=600000u
X130 bias_c bias_b bias_b VSS sky130_fd_pr__nfet_01v8_lvt ad=0p pd=0u as=0p ps=0u w=1.4e+06u l=600000u
X131 bias_d a_n1110_n5852# a_n1110_n5852# VSS sky130_fd_pr__nfet_01v8 ad=0p pd=0u as=0p ps=0u w=1.4e+06u l=600000u
X132 a_n2185_n13400# bias_d sc_cmfb_0/transmission_gate_5/in VSS sky130_fd_pr__nfet_01v8 ad=0p pd=0u as=0p ps=0u w=1.4e+06u l=600000u
X133 sc_cmfb_0/transmission_gate_3/out p1_b on VDD sky130_fd_pr__pfet_01v8 ad=0p pd=0u as=0p ps=0u w=1.36e+06u l=150000u
X134 a_n5928_n12940# bias_c on VDD sky130_fd_pr__pfet_01v8 ad=0p pd=0u as=0p ps=0u w=1.4e+06u l=600000u
X135 a_n5928_n13620# bias_b VDD VDD sky130_fd_pr__pfet_01v8_lvt ad=0p pd=0u as=0p ps=0u w=1.4e+06u l=600000u
X136 VSS sc_cmfb_0/transmission_gate_5/in a_n5580_n13620# VSS sky130_fd_pr__nfet_01v8 ad=0p pd=0u as=0p ps=0u w=1.4e+06u l=600000u
X137 sc_cmfb_0/transmission_gate_5/in p2_b sc_cmfb_0/transmission_gate_5/out VDD sky130_fd_pr__pfet_01v8 ad=0p pd=0u as=0p ps=0u w=1.36e+06u l=150000u
X138 a_n6313_n4140# bias_b VDD VDD sky130_fd_pr__pfet_01v8_lvt ad=0p pd=0u as=0p ps=0u w=1.4e+06u l=600000u
X139 VSS i_bias i_bias VSS sky130_fd_pr__nfet_01v8 ad=0p pd=0u as=0p ps=0u w=1.4e+06u l=600000u
X140 op bias_d a_n1651_n11400# VSS sky130_fd_pr__nfet_01v8 ad=0p pd=0u as=0p ps=0u w=1.4e+06u l=600000u
X141 sc_cmfb_0/transmission_gate_5/in p2 sc_cmfb_0/transmission_gate_5/out VSS sky130_fd_pr__nfet_01v8 ad=0p pd=0u as=0p ps=0u w=520000u l=150000u
X142 a_n1110_n5852# bias_c a_n6313_n5010# VDD sky130_fd_pr__pfet_01v8 ad=0p pd=0u as=0p ps=0u w=1.4e+06u l=600000u
X143 a_n5580_n13620# sc_cmfb_0/transmission_gate_5/in VSS VSS sky130_fd_pr__nfet_01v8 ad=0p pd=0u as=0p ps=0u w=1.4e+06u l=600000u
X144 bias_c bias_c bias_c VSS sky130_fd_pr__nfet_01v8 ad=0p pd=0u as=0p ps=0u w=1.4e+06u l=600000u
X145 sc_cmfb_0/transmission_gate_6/in p2_b op VDD sky130_fd_pr__pfet_01v8 ad=0p pd=0u as=0p ps=0u w=1.36e+06u l=150000u
X146 on p2_b sc_cmfb_0/transmission_gate_7/in VDD sky130_fd_pr__pfet_01v8 ad=0p pd=0u as=0p ps=0u w=1.36e+06u l=150000u
X147 sc_cmfb_0/transmission_gate_7/in p2_b on VDD sky130_fd_pr__pfet_01v8 ad=0p pd=0u as=0p ps=0u w=1.36e+06u l=150000u
X148 VSS i_bias bias_c VSS sky130_fd_pr__nfet_01v8 ad=0p pd=0u as=0p ps=0u w=1.4e+06u l=600000u
X149 sc_cmfb_0/transmission_gate_5/in bias_d a_n2185_n13400# VSS sky130_fd_pr__nfet_01v8 ad=0p pd=0u as=0p ps=0u w=1.4e+06u l=600000u
X150 a_n5580_n13620# sc_cmfb_0/transmission_gate_8/out VSS VSS sky130_fd_pr__nfet_01v8 ad=0p pd=0u as=0p ps=0u w=1.4e+06u l=600000u
X151 op bias_c a_n5928_n13620# VDD sky130_fd_pr__pfet_01v8 ad=0p pd=0u as=0p ps=0u w=1.4e+06u l=600000u
X152 VSS sc_cmfb_0/transmission_gate_8/out a_n5580_n13620# VSS sky130_fd_pr__nfet_01v8 ad=0p pd=0u as=0p ps=0u w=1.4e+06u l=600000u
X153 op bias_c a_n5928_n13620# VDD sky130_fd_pr__pfet_01v8 ad=0p pd=0u as=0p ps=0u w=1.4e+06u l=600000u
X154 sc_cmfb_0/transmission_gate_6/in p2 op VSS sky130_fd_pr__nfet_01v8 ad=0p pd=0u as=0p ps=0u w=520000u l=150000u
X155 VDD bias_b a_n5928_n12940# VDD sky130_fd_pr__pfet_01v8_lvt ad=0p pd=0u as=0p ps=0u w=1.4e+06u l=600000u
X156 VSS sc_cmfb_0/transmission_gate_8/out a_n5580_n13620# VSS sky130_fd_pr__nfet_01v8 ad=0p pd=0u as=0p ps=0u w=1.4e+06u l=600000u
X157 op bias_d a_n1651_n11400# VSS sky130_fd_pr__nfet_01v8 ad=0p pd=0u as=0p ps=0u w=1.4e+06u l=600000u
X158 sc_cmfb_0/transmission_gate_7/in p2_b on VDD sky130_fd_pr__pfet_01v8 ad=0p pd=0u as=0p ps=0u w=1.36e+06u l=150000u
X159 a_n5580_n13620# sc_cmfb_0/transmission_gate_5/in VSS VSS sky130_fd_pr__nfet_01v8 ad=0p pd=0u as=0p ps=0u w=1.4e+06u l=600000u
X160 sc_cmfb_0/transmission_gate_5/in sc_cmfb_0/transmission_gate_5/in sc_cmfb_0/transmission_gate_5/in VSS sky130_fd_pr__nfet_01v8 ad=0p pd=0u as=0p ps=0u w=1.4e+06u l=600000u
X161 on p2_b sc_cmfb_0/transmission_gate_7/in VDD sky130_fd_pr__pfet_01v8 ad=0p pd=0u as=0p ps=0u w=1.36e+06u l=150000u
X162 a_n6313_n3270# a_n6313_n3270# a_n6313_n3270# VDD sky130_fd_pr__pfet_01v8_lvt ad=0p pd=0u as=0p ps=0u w=1.4e+06u l=600000u
X163 cm p2 sc_cmfb_0/transmission_gate_3/out VSS sky130_fd_pr__nfet_01v8 ad=0p pd=0u as=0p ps=0u w=520000u l=150000u
X164 sc_cmfb_0/transmission_gate_7/in p2_b on VDD sky130_fd_pr__pfet_01v8 ad=0p pd=0u as=0p ps=0u w=1.36e+06u l=150000u
X165 on VDD VDD VDD sky130_fd_pr__pfet_01v8 ad=0p pd=0u as=0p ps=0u w=1.4e+06u l=600000u
X166 VSS sc_cmfb_0/transmission_gate_8/out a_n5580_n13620# VSS sky130_fd_pr__nfet_01v8 ad=0p pd=0u as=0p ps=0u w=1.4e+06u l=600000u
X167 VSS i_bias i_bias VSS sky130_fd_pr__nfet_01v8 ad=0p pd=0u as=0p ps=0u w=1.4e+06u l=600000u
X168 bias_c bias_c bias_c VSS sky130_fd_pr__nfet_01v8_lvt ad=0p pd=0u as=0p ps=0u w=1.4e+06u l=600000u
X169 bias_b bias_b bias_c VSS sky130_fd_pr__nfet_01v8_lvt ad=0p pd=0u as=0p ps=0u w=1.4e+06u l=600000u
X170 c1_14602_1831# m3_14502_1731# sky130_fd_pr__cap_mim_m3_1 l=4.8e+06u w=4.8e+06u
X171 a_n1651_n11400# bias_d op VSS sky130_fd_pr__nfet_01v8 ad=0p pd=0u as=0p ps=0u w=1.4e+06u l=600000u
X172 a_n5580_n13620# sc_cmfb_0/transmission_gate_5/in VSS VSS sky130_fd_pr__nfet_01v8 ad=0p pd=0u as=0p ps=0u w=1.4e+06u l=600000u
X173 VDD VDD VDD VDD sky130_fd_pr__pfet_01v8 ad=0p pd=0u as=0p ps=0u w=1.4e+06u l=600000u
X174 sc_cmfb_0/transmission_gate_8/in p2 sc_cmfb_0/transmission_gate_8/out VSS sky130_fd_pr__nfet_01v8 ad=0p pd=0u as=2.0176e+12p ps=2.024e+07u w=520000u l=150000u
X175 VSS sc_cmfb_0/transmission_gate_8/out a_n5580_n13620# VSS sky130_fd_pr__nfet_01v8 ad=0p pd=0u as=0p ps=0u w=1.4e+06u l=600000u
X176 sc_cmfb_0/transmission_gate_7/in p2_b on VDD sky130_fd_pr__pfet_01v8 ad=0p pd=0u as=0p ps=0u w=1.36e+06u l=150000u
X177 cm p1_b sc_cmfb_0/transmission_gate_6/in VDD sky130_fd_pr__pfet_01v8 ad=0p pd=0u as=0p ps=0u w=1.36e+06u l=150000u
X178 VSS sc_cmfb_0/transmission_gate_8/out a_n5580_n13620# VSS sky130_fd_pr__nfet_01v8 ad=0p pd=0u as=0p ps=0u w=1.4e+06u l=600000u
X179 on p2_b sc_cmfb_0/transmission_gate_7/in VDD sky130_fd_pr__pfet_01v8 ad=0p pd=0u as=0p ps=0u w=1.36e+06u l=150000u
X180 c1_14602_n7169# m3_14502_n7269# sky130_fd_pr__cap_mim_m3_1 l=4.8e+06u w=4.8e+06u
X181 VSS sc_cmfb_0/transmission_gate_8/out a_n5580_n13620# VSS sky130_fd_pr__nfet_01v8 ad=0p pd=0u as=0p ps=0u w=1.4e+06u l=600000u
X182 sc_cmfb_0/transmission_gate_4/out p2_b cm VDD sky130_fd_pr__pfet_01v8 ad=0p pd=0u as=0p ps=0u w=1.36e+06u l=150000u
X183 a_n5580_n13620# sc_cmfb_0/transmission_gate_8/out VSS VSS sky130_fd_pr__nfet_01v8 ad=0p pd=0u as=0p ps=0u w=1.4e+06u l=600000u
X184 VSS VSS a_n1651_n13400# VSS sky130_fd_pr__nfet_01v8 ad=0p pd=0u as=0p ps=0u w=1.4e+06u l=600000u
X185 sc_cmfb_0/transmission_gate_5/out p1_b sc_cmfb_0/transmission_gate_8/out VDD sky130_fd_pr__pfet_01v8 ad=0p pd=0u as=0p ps=0u w=1.36e+06u l=150000u
X186 VSS sc_cmfb_0/transmission_gate_8/out a_n5580_n13620# VSS sky130_fd_pr__nfet_01v8 ad=0p pd=0u as=0p ps=0u w=1.4e+06u l=600000u
X187 a_n5580_n13620# sc_cmfb_0/transmission_gate_8/out VSS VSS sky130_fd_pr__nfet_01v8 ad=0p pd=0u as=0p ps=0u w=1.4e+06u l=600000u
X188 op bias_d a_n1651_n11400# VSS sky130_fd_pr__nfet_01v8 ad=0p pd=0u as=0p ps=0u w=1.4e+06u l=600000u
X189 a_n2185_n13400# sc_cmfb_0/transmission_gate_5/in VSS VSS sky130_fd_pr__nfet_01v8 ad=0p pd=0u as=0p ps=0u w=1.4e+06u l=600000u
X190 cm p2_b sc_cmfb_0/transmission_gate_4/out VDD sky130_fd_pr__pfet_01v8 ad=0p pd=0u as=0p ps=0u w=1.36e+06u l=150000u
X191 VDD bias_b a_n5928_n13620# VDD sky130_fd_pr__pfet_01v8_lvt ad=0p pd=0u as=0p ps=0u w=1.4e+06u l=600000u
X192 bias_b bias_b bias_b VSS sky130_fd_pr__nfet_01v8_lvt ad=0p pd=0u as=0p ps=0u w=1.4e+06u l=600000u
X193 bias_c bias_b bias_b VSS sky130_fd_pr__nfet_01v8_lvt ad=0p pd=0u as=0p ps=0u w=1.4e+06u l=600000u
X194 a_n5580_n13620# sc_cmfb_0/transmission_gate_8/out VSS VSS sky130_fd_pr__nfet_01v8 ad=0p pd=0u as=0p ps=0u w=1.4e+06u l=600000u
X195 VSS sc_cmfb_0/transmission_gate_5/in a_n5580_n13620# VSS sky130_fd_pr__nfet_01v8 ad=0p pd=0u as=0p ps=0u w=1.4e+06u l=600000u
X196 VSS VSS a_n2185_n13400# VSS sky130_fd_pr__nfet_01v8 ad=0p pd=0u as=0p ps=0u w=1.4e+06u l=600000u
X197 a_n5580_n13620# sc_cmfb_0/transmission_gate_8/out VSS VSS sky130_fd_pr__nfet_01v8 ad=0p pd=0u as=0p ps=0u w=1.4e+06u l=600000u
X198 a_n5580_n13620# a_n5580_n13620# a_n5580_n13620# VSS sky130_fd_pr__nfet_01v8 ad=0p pd=0u as=0p ps=0u w=1.4e+06u l=600000u
X199 VSS sc_cmfb_0/transmission_gate_5/in a_n5580_n13620# VSS sky130_fd_pr__nfet_01v8 ad=0p pd=0u as=0p ps=0u w=1.4e+06u l=600000u
X200 c1_16402_n5369# m3_16302_n5469# sky130_fd_pr__cap_mim_m3_1 l=4.8e+06u w=4.8e+06u
X201 a_12106_n9962# cm a_11928_n10732# VSS sky130_fd_pr__nfet_01v8 ad=8.12e+11p pd=6.76e+06u as=8.12e+11p ps=6.76e+06u w=1.4e+06u l=600000u
X202 VSS i_bias bias_c VSS sky130_fd_pr__nfet_01v8 ad=0p pd=0u as=0p ps=0u w=1.4e+06u l=600000u
X203 a_n1651_n11400# sc_cmfb_0/transmission_gate_5/in VSS VSS sky130_fd_pr__nfet_01v8 ad=0p pd=0u as=0p ps=0u w=1.4e+06u l=600000u
X204 on p2 sc_cmfb_0/transmission_gate_7/in VSS sky130_fd_pr__nfet_01v8 ad=0p pd=0u as=0p ps=0u w=520000u l=150000u
X205 a_n1110_n5852# a_n1110_n5852# bias_d VSS sky130_fd_pr__nfet_01v8 ad=0p pd=0u as=0p ps=0u w=1.4e+06u l=600000u
X206 bias_c i_bias VSS VSS sky130_fd_pr__nfet_01v8 ad=0p pd=0u as=0p ps=0u w=1.4e+06u l=600000u
X207 sc_cmfb_0/transmission_gate_5/out p2_b sc_cmfb_0/transmission_gate_5/in VDD sky130_fd_pr__pfet_01v8 ad=0p pd=0u as=0p ps=0u w=1.36e+06u l=150000u
X208 sc_cmfb_0/transmission_gate_7/in p2 on VSS sky130_fd_pr__nfet_01v8 ad=0p pd=0u as=0p ps=0u w=520000u l=150000u
X209 op bias_c a_n5928_n13620# VDD sky130_fd_pr__pfet_01v8 ad=0p pd=0u as=0p ps=0u w=1.4e+06u l=600000u
X210 VDD bias_b a_n5928_n13620# VDD sky130_fd_pr__pfet_01v8_lvt ad=0p pd=0u as=0p ps=0u w=1.4e+06u l=600000u
X211 a_n5928_n13620# a_n5928_n13620# a_n5928_n13620# VDD sky130_fd_pr__pfet_01v8 ad=0p pd=0u as=0p ps=0u w=1.4e+06u l=600000u
X212 VSS sc_cmfb_0/transmission_gate_5/in a_n5580_n13620# VSS sky130_fd_pr__nfet_01v8 ad=0p pd=0u as=0p ps=0u w=1.4e+06u l=600000u
X213 bias_c bias_b bias_b VSS sky130_fd_pr__nfet_01v8_lvt ad=0p pd=0u as=0p ps=0u w=1.4e+06u l=600000u
X214 bias_c bias_b bias_b VSS sky130_fd_pr__nfet_01v8_lvt ad=0p pd=0u as=0p ps=0u w=1.4e+06u l=600000u
X215 VSS sc_cmfb_0/transmission_gate_5/in a_n5580_n13620# VSS sky130_fd_pr__nfet_01v8 ad=0p pd=0u as=0p ps=0u w=1.4e+06u l=600000u
X216 op bias_c a_n5928_n13620# VDD sky130_fd_pr__pfet_01v8 ad=0p pd=0u as=0p ps=0u w=1.4e+06u l=600000u
X217 bias_c bias_b bias_b VSS sky130_fd_pr__nfet_01v8_lvt ad=0p pd=0u as=0p ps=0u w=1.4e+06u l=600000u
X218 VSS sc_cmfb_0/transmission_gate_5/in a_n5580_n13620# VSS sky130_fd_pr__nfet_01v8 ad=0p pd=0u as=0p ps=0u w=1.4e+06u l=600000u
X219 sc_cmfb_0/transmission_gate_5/out p2 sc_cmfb_0/transmission_gate_5/in VSS sky130_fd_pr__nfet_01v8 ad=0p pd=0u as=0p ps=0u w=520000u l=150000u
X220 VDD VDD a_n1110_n5852# VDD sky130_fd_pr__pfet_01v8 ad=0p pd=0u as=0p ps=0u w=1.4e+06u l=600000u
X221 VSS sc_cmfb_0/transmission_gate_5/in a_n5580_n13620# VSS sky130_fd_pr__nfet_01v8 ad=0p pd=0u as=0p ps=0u w=1.4e+06u l=600000u
X222 op p2_b sc_cmfb_0/transmission_gate_6/in VDD sky130_fd_pr__pfet_01v8 ad=0p pd=0u as=0p ps=0u w=1.36e+06u l=150000u
X223 sc_cmfb_0/transmission_gate_6/in p1 cm VSS sky130_fd_pr__nfet_01v8 ad=0p pd=0u as=0p ps=0u w=520000u l=150000u
X224 a_n5580_n13620# sc_cmfb_0/transmission_gate_5/in VSS VSS sky130_fd_pr__nfet_01v8 ad=0p pd=0u as=0p ps=0u w=1.4e+06u l=600000u
X225 sc_cmfb_0/transmission_gate_5/in p1_b sc_cmfb_0/transmission_gate_8/in VDD sky130_fd_pr__pfet_01v8 ad=0p pd=0u as=0p ps=0u w=1.36e+06u l=150000u
X226 VSS sc_cmfb_0/transmission_gate_5/in a_n5580_n13620# VSS sky130_fd_pr__nfet_01v8 ad=0p pd=0u as=0p ps=0u w=1.4e+06u l=600000u
X227 sc_cmfb_0/transmission_gate_7/in p2 on VSS sky130_fd_pr__nfet_01v8 ad=0p pd=0u as=0p ps=0u w=520000u l=150000u
X228 a_n5928_n12940# a_n5928_n12940# a_n5928_n12940# VSS sky130_fd_pr__nfet_01v8_lvt ad=0p pd=0u as=0p ps=0u w=1.2e+06u l=200000u
X229 op p2 sc_cmfb_0/transmission_gate_6/in VSS sky130_fd_pr__nfet_01v8 ad=0p pd=0u as=0p ps=0u w=520000u l=150000u
X230 on p2 sc_cmfb_0/transmission_gate_7/in VSS sky130_fd_pr__nfet_01v8 ad=0p pd=0u as=0p ps=0u w=520000u l=150000u
X231 sc_cmfb_0/transmission_gate_7/in p2 on VSS sky130_fd_pr__nfet_01v8 ad=0p pd=0u as=0p ps=0u w=520000u l=150000u
X232 sc_cmfb_0/transmission_gate_8/out p1 sc_cmfb_0/transmission_gate_5/out VSS sky130_fd_pr__nfet_01v8 ad=0p pd=0u as=0p ps=0u w=520000u l=150000u
X233 sc_cmfb_0/transmission_gate_4/out p1_b op VDD sky130_fd_pr__pfet_01v8 ad=0p pd=0u as=0p ps=0u w=1.36e+06u l=150000u
X234 bias_d a_n1110_n5852# a_n1110_n5852# VSS sky130_fd_pr__nfet_01v8 ad=0p pd=0u as=0p ps=0u w=1.4e+06u l=600000u
X235 a_n1651_n13400# sc_cmfb_0/transmission_gate_5/in VSS VSS sky130_fd_pr__nfet_01v8 ad=0p pd=0u as=0p ps=0u w=1.4e+06u l=600000u
X236 a_n5580_n13620# in a_n5928_n13620# VSS sky130_fd_pr__nfet_01v8_lvt ad=0p pd=0u as=0p ps=0u w=1.2e+06u l=200000u
X237 a_n5928_n12940# bias_b VDD VDD sky130_fd_pr__pfet_01v8_lvt ad=0p pd=0u as=0p ps=0u w=1.4e+06u l=600000u
X238 a_n2185_n13400# sc_cmfb_0/transmission_gate_5/in VSS VSS sky130_fd_pr__nfet_01v8 ad=0p pd=0u as=0p ps=0u w=1.4e+06u l=600000u
X239 a_n6313_n3270# bias_c bias_b VDD sky130_fd_pr__pfet_01v8 ad=0p pd=0u as=1.624e+12p ps=1.352e+07u w=1.4e+06u l=600000u
X240 bias_c bias_c bias_c VSS sky130_fd_pr__nfet_01v8_lvt ad=0p pd=0u as=0p ps=0u w=1.4e+06u l=600000u
X241 VSS i_bias bias_c VSS sky130_fd_pr__nfet_01v8 ad=0p pd=0u as=0p ps=0u w=1.4e+06u l=600000u
X242 a_n5580_n13620# sc_cmfb_0/transmission_gate_5/in VSS VSS sky130_fd_pr__nfet_01v8 ad=0p pd=0u as=0p ps=0u w=1.4e+06u l=600000u
X243 a_n2185_n13400# sc_cmfb_0/transmission_gate_5/in VSS VSS sky130_fd_pr__nfet_01v8 ad=0p pd=0u as=0p ps=0u w=1.4e+06u l=600000u
X244 op bias_d a_n1651_n11400# VSS sky130_fd_pr__nfet_01v8 ad=0p pd=0u as=0p ps=0u w=1.4e+06u l=600000u
X245 sc_cmfb_0/transmission_gate_7/in p2 on VSS sky130_fd_pr__nfet_01v8 ad=0p pd=0u as=0p ps=0u w=520000u l=150000u
X246 VDD bias_b a_n5928_n12940# VDD sky130_fd_pr__pfet_01v8_lvt ad=0p pd=0u as=0p ps=0u w=1.4e+06u l=600000u
X247 VDD bias_b a_n6313_n3270# VDD sky130_fd_pr__pfet_01v8_lvt ad=0p pd=0u as=0p ps=0u w=1.4e+06u l=600000u